BEGIN options
  SAVE_FLOWS
END options

BEGIN dimensions
  MAXBOUND  55
END dimensions

BEGIN period  1
  1 40 56      27.60516101
  1 40 57      26.69190824
  1 40 58      25.58743632
  1 41 58      24.50143225
  1 41 59      23.76217338
  1 42 59      23.19475237
  1 42 60      22.68214181
  1 41 60      22.15741065
  1 41 61      21.26649438
  1 41 62      20.20186223
  1 41 63      19.28499078
  1 42 63      18.64175444
  1 42 64      18.14184643
  1 41 64      17.59593918
  1 41 65      16.81529081
  1 41 66      15.83641609
  1 41 67      14.86506059
  1 41 68      13.89878813
  1 41 69      13.07059772
  1 42 69      12.32027190
  1 42 70      12.03092541
  1 42 71      11.62860590
  1 43 71      11.14567782
  1 44 71      10.81352772
  1 44 72      10.57085918
  1 44 73      10.14975637
  1 44 74       9.73495020
  1 44 75       9.30359271
  1 44 76       9.01276297
  1 45 76       8.71946935
  1 45 77       8.27497667
  1 45 78       7.97057386
  1 46 78       7.76249404
  1 46 79       7.53417621
  1 45 79       7.33035725
  1 45 80       7.03397160
  1 45 81       6.56199776
  1 45 82       6.14946230
  1 44 82       5.90885293
  1 44 83       5.57764626
  1 44 84       5.14997235
  1 43 84       4.92072975
  1 43 85       4.67085515
  1 43 86       4.24924549
  1 43 87       3.83198615
  1 43 88       3.40876741
  1 43 89       3.19161256
  1 42 89       2.97644900
  1 42 90       2.55058535
  1 42 91       2.13040528
  1 42 92       1.72357358
  1 42 93       1.39734549
  1 41 93       1.08601744
  1 41 94       0.76112156
  1 40 94       0.48542907
END period  1

