BEGIN options
  SAVE_FLOWS
END options

BEGIN dimensions
  MAXBOUND  248
END dimensions

BEGIN period  1
  1 16 96       0.00000000
  1 16 97       0.00000000
  1 17 89       0.00000000
  1 17 90       0.00000000
  1 17 91       0.00000000
  1 17 92       0.00000000
  1 17 93       0.00000000
  1 17 94       0.00000000
  1 17 95       0.00000000
  1 17 96       0.00000000
  1 17 97       0.00000000
  1 18 88       0.00000000
  1 18 89       0.00000000
  1 18 90       0.00000000
  1 18 91       0.00000000
  1 18 92       0.00000000
  1 18 93       0.00000000
  1 18 94       0.00000000
  1 18 95       0.00000000
  1 18 96       0.00000000
  1 18 97       0.00000000
  1 19 87       0.00000000
  1 19 88       0.00000000
  1 19 89       0.00000000
  1 19 90       0.00000000
  1 19 91       0.00000000
  1 19 92       0.00000000
  1 19 93       0.00000000
  1 19 94       0.00000000
  1 19 95       0.00000000
  1 19 96       0.00000000
  1 20 87       0.00000000
  1 20 88       0.00000000
  1 20 89       0.00000000
  1 20 90       0.00000000
  1 20 91       0.00000000
  1 20 92       0.00000000
  1 20 93       0.00000000
  1 20 94       0.00000000
  1 20 95       0.00000000
  1 20 96       0.00000000
  1 21 88       0.00000000
  1 21 89       0.00000000
  1 21 90       0.00000000
  1 21 91       0.00000000
  1 21 92       0.00000000
  1 21 93       0.00000000
  1 21 94       0.00000000
  1 21 95       0.00000000
  1 22 87       0.00000000
  1 22 88       0.00000000
  1 22 89       0.00000000
  1 22 90       0.00000000
  1 22 91       0.00000000
  1 22 92       0.00000000
  1 22 93       0.00000000
  1 22 94       0.00000000
  1 23 86       0.00000000
  1 23 87       0.00000000
  1 23 88       0.00000000
  1 23 89       0.00000000
  1 23 90       0.00000000
  1 23 91       0.00000000
  1 23 92       0.00000000
  1 23 93       0.00000000
  1 24 83       0.00000000
  1 24 84       0.00000000
  1 24 85       0.00000000
  1 24 86       0.00000000
  1 24 87       0.00000000
  1 24 88       0.00000000
  1 24 89       0.00000000
  1 24 90       0.00000000
  1 24 91       0.00000000
  1 24 92       0.00000000
  1 24 93       0.00000000
  1 25 82       0.00000000
  1 25 83       0.00000000
  1 25 84       0.00000000
  1 25 85       0.00000000
  1 25 86       0.00000000
  1 25 87       0.00000000
  1 25 88       0.00000000
  1 25 89       0.00000000
  1 25 90       0.00000000
  1 25 91       0.00000000
  1 25 92       0.00000000
  1 25 93       0.00000000
  1 26 81       0.00000000
  1 26 82       0.00000000
  1 26 83       0.00000000
  1 26 84       0.00000000
  1 26 85       0.00000000
  1 26 86       0.00000000
  1 26 87       0.00000000
  1 26 88       0.00000000
  1 26 89       0.00000000
  1 26 90       0.00000000
  1 26 91       0.00000000
  1 26 92       0.00000000
  1 26 93       0.00000000
  1 26 94       0.00000000
  1 27 80       0.00000000
  1 27 81       0.00000000
  1 27 82       0.00000000
  1 27 83       0.00000000
  1 27 84       0.00000000
  1 27 85       0.00000000
  1 27 86       0.00000000
  1 27 87       0.00000000
  1 27 88       0.00000000
  1 27 89       0.00000000
  1 27 90       0.00000000
  1 27 91       0.00000000
  1 27 92       0.00000000
  1 27 93       0.00000000
  1 27 94       0.00000000
  1 28 79       0.00000000
  1 28 80       0.00000000
  1 28 81       0.00000000
  1 28 82       0.00000000
  1 28 83       0.00000000
  1 28 84       0.00000000
  1 28 85       0.00000000
  1 28 86       0.00000000
  1 28 87       0.00000000
  1 28 88       0.00000000
  1 28 89       0.00000000
  1 28 90       0.00000000
  1 28 91       0.00000000
  1 28 92       0.00000000
  1 28 94       0.00000000
  1 29 79       0.00000000
  1 29 80       0.00000000
  1 29 81       0.00000000
  1 29 82       0.00000000
  1 29 83       0.00000000
  1 29 84       0.00000000
  1 29 85       0.00000000
  1 29 86       0.00000000
  1 29 87       0.00000000
  1 29 88       0.00000000
  1 29 89       0.00000000
  1 29 90       0.00000000
  1 29 91       0.00000000
  1 29 92       0.00000000
  1 29 93       0.00000000
  1 29 94       0.00000000
  1 30 81       0.00000000
  1 30 82       0.00000000
  1 30 83       0.00000000
  1 30 84       0.00000000
  1 30 85       0.00000000
  1 30 86       0.00000000
  1 30 87       0.00000000
  1 30 88       0.00000000
  1 30 89       0.00000000
  1 30 90       0.00000000
  1 30 92       0.00000000
  1 30 93       0.00000000
  1 30 94       0.00000000
  1 31 82       0.00000000
  1 31 83       0.00000000
  1 31 84       0.00000000
  1 31 85       0.00000000
  1 31 86       0.00000000
  1 31 87       0.00000000
  1 31 88       0.00000000
  1 31 89       0.00000000
  1 31 90       0.00000000
  1 31 91       0.00000000
  1 31 92       0.00000000
  1 31 93       0.00000000
  1 32 82       0.00000000
  1 32 83       0.00000000
  1 32 84       0.00000000
  1 32 85       0.00000000
  1 32 86       0.00000000
  1 32 87       0.00000000
  1 32 88       0.00000000
  1 32 89       0.00000000
  1 32 90       0.00000000
  1 32 91       0.00000000
  1 33 82       0.00000000
  1 33 83       0.00000000
  1 33 84       0.00000000
  1 33 85       0.00000000
  1 33 86       0.00000000
  1 33 87       0.00000000
  1 33 88       0.00000000
  1 33 89       0.00000000
  1 33 90       0.00000000
  1 33 91       0.00000000
  1 34 83       0.00000000
  1 34 84       0.00000000
  1 34 85       0.00000000
  1 34 86       0.00000000
  1 34 87       0.00000000
  1 34 88       0.00000000
  1 34 89       0.00000000
  1 34 90       0.00000000
  1 34 91       0.00000000
  1 34 92       0.00000000
  1 34 93       0.00000000
  1 35 83       0.00000000
  1 35 84       0.00000000
  1 35 85       0.00000000
  1 35 86       0.00000000
  1 35 87       0.00000000
  1 35 88       0.00000000
  1 35 89       0.00000000
  1 35 90       0.00000000
  1 35 91       0.00000000
  1 35 92       0.00000000
  1 35 93       0.00000000
  1 36 85       0.00000000
  1 36 86       0.00000000
  1 36 87       0.00000000
  1 36 93       0.00000000
  1 59 89       0.00000000
  1 59 90       0.00000000
  1 59 91       0.00000000
  1 59 92       0.00000000
  1 60 88       0.00000000
  1 60 89       0.00000000
  1 60 90       0.00000000
  1 60 91       0.00000000
  1 60 92       0.00000000
  1 60 93       0.00000000
  1 61 88       0.00000000
  1 61 89       0.00000000
  1 61 91       0.00000000
  1 61 92       0.00000000
  1 61 93       0.00000000
  1 62 91       0.00000000
  1 62 92       0.00000000
  1 62 93       0.00000000
  1 63 91       0.00000000
  1 63 92       0.00000000
  1 63 93       0.00000000
  1 64 91       0.00000000
  1 64 92       0.00000000
  1 64 93       0.00000000
  1 65 91       0.00000000
  1 65 92       0.00000000
  1 65 93       0.00000000
  1 66 92       0.00000000
  1 66 93       0.00000000
END period  1

