BEGIN options
  SAVE_FLOWS
END options

BEGIN dimensions
  MAXBOUND  79
END dimensions

BEGIN period  1
  1 96 39     132.70391353
  1 96 40     130.78372639
  1 96 41     127.52359596
  1 96 42     124.26033467
  1 96 43     120.94469841
  1 96 44     117.03017170
  1 95 44     113.11250488
  1 95 45     111.00233596
  1 94 45     108.23749187
  1 94 46     104.30664312
  1 94 47     101.14078606
  1 94 48      97.98890879
  1 94 49      94.84908356
  1 94 50      91.86174814
  1 93 50      90.17643891
  1 93 51      87.95825921
  1 93 52      84.86227181
  1 92 52      82.80837663
  1 92 53      80.09747895
  1 92 54      76.64972469
  1 92 55      73.35195253
  1 92 56      70.71078245
  1 91 56      66.42315740
  1 91 57      65.32363859
  1 90 57      63.96573904
  1 90 58      61.68785483
  1 91 58      59.76366428
  1 89 58      58.77914342
  1 89 59      57.38040170
  1 89 60      56.15323263
  1 88 60      55.37288871
  1 88 61      53.89087286
  1 87 61      52.69656769
  1 87 62      51.53094017
  1 87 63      50.23771452
  1 86 63      49.30350821
  1 86 64      47.85563709
  1 85 64      46.86912726
  1 85 65      45.84942083
  1 85 66      44.16769914
  1 85 67      42.81317312
  1 84 67      41.68126348
  1 84 68      40.22200136
  1 84 69      39.09670483
  1 83 69      38.21274379
  1 83 70      36.78097695
  1 83 71      35.52096477
  1 82 71      34.05181164
  1 81 71      32.27456589
  1 81 72      30.67945158
  1 81 73      28.96793849
  1 81 74      27.30433503
  1 81 75      25.54600758
  1 80 75      24.52085698
  1 80 76      23.44323122
  1 79 76      22.00123284
  1 79 77      20.77973139
  1 79 78      19.21509606
  1 79 79      17.71093448
  1 79 80      16.21126944
  1 79 81      14.71804594
  1 79 82      13.22378579
  1 79 83      11.74235281
  1 79 84      10.27235664
  1 78 84       9.51733421
  1 78 85       7.68117071
  1 78 86       7.04724647
  1 78 87       6.56837049
  1 79 87       6.23126210
  1 79 88       5.70752476
  1 79 89       5.04029671
  1 79 90       4.40579361
  1 79 91       3.75925275
  1 79 92       3.09482488
  1 79 93       2.63307754
  1 78 93       2.29289174
  1 78 94       1.75563372
  1 78 95       1.10375962
  1 78 96       0.44314687
END period  1

