BEGIN options
  SAVE_FLOWS
END options

BEGIN dimensions
  MAXBOUND  173
END dimensions

BEGIN period  1
  2 114 2     168.26725278   0.02005820000000  166.26725278
  2 114 3     163.13890908   0.02005820000000  161.13890908
  2 113 5     154.00000000   0.02005820000000  152.00000000
  2 113 6     152.37017676   0.02005820000000  150.37017676
  2 113 7     150.74476716   0.02005820000000  148.74476716
  2 113 8     149.11995384   0.02005820000000  147.11995384
  2 113 9     147.60751965   0.02005820000000  145.60751965
  2 112 9     146.07037853   0.02005820000000  144.07037853
  2 111 9     144.38528449   0.02005820000000  142.38528449
  2 110 10     142.21459227   0.02005820000000  140.21459227
  2 110 11     141.05811729   0.02005820000000  139.05811729
  4 109 11     139.88522267   0.02005820000000  137.88522267
  2 109 12     138.68417067   0.02005820000000  136.68417067
  4 108 12     137.82158160   0.02005820000000  135.82158160
  4 108 13     136.32956030   0.02005820000000  134.32956030
  2 108 14     134.68484227   0.02005820000000  132.68484227
  2 108 15     133.01912754   0.02005820000000  131.01912754
  2 108 16     131.38843742   0.02005820000000  129.38843742
  2 107 16     130.44557976   0.02005820000000  128.44557976
  2 107 17     129.47000000   0.02005820000000  127.47000000
  2 106 17     126.95674846   0.02005820000000  124.95674846
  2 105 17     125.05000000   0.02005820000000  123.05000000
  2 105 18     124.41967494   0.02005820000000  122.41967494
  2 104 18     123.54438654   0.02005820000000  121.54438654
  2 104 19     122.71392399   0.02005820000000  120.71392399
  2 103 19     121.96832476   0.02005820000000  119.96832476
  2 103 20     121.06965373   0.02005820000000  119.06965373
  4 102 20     120.26218686   0.02005820000000  118.26218686
  2 102 21     119.44000000   0.02005820000000  117.44000000
  4 101 21     117.17677316   0.02005820000000  115.17677316
  4 101 22     114.60000000   0.02005820000000  112.60000000
  2 101 23     113.27632535   0.02005820000000  111.27632535
  2 101 24     111.95628269   0.02005820000000  109.95628269
  2 101 25     110.61755312   0.02005820000000  108.61755312
  2 101 26     109.20000000   0.02005820000000  107.20000000
  2 101 27     107.68617677   0.02005820000000  105.68617677
  2 100 27     106.38322468   0.02005820000000  104.38322468
  2 100 28     104.14000000   0.02005820000000  102.14000000
  2 100 29     104.14000000   0.02005820000000  102.14000000
  2 99 29      99.00000000   0.02005820000000   97.00000000
  2 99 30      98.02487359   0.02005820000000   96.02487359
  2 99 31      96.82983178   0.02005820000000   94.82983178
  2 99 32      95.89345158   0.02005820000000   93.89345158
  2 100 32      95.42978543   0.02005820000000   93.42978543
  2 100 33      94.95343815   0.02005820000000   92.95343815
  2 100 34      94.00000000   0.02005820000000   92.00000000
  2 100 35      94.00000000   0.02005820000000   92.00000000
  2 100 36      94.00000000   0.02005820000000   92.00000000
  2 101 36      94.00000000   0.02005820000000   92.00000000
  2 101 37      94.00000000   0.02005820000000   92.00000000
  2 101 38      89.60000000   0.02005820000000   87.60000000
  2 101 39      89.30000000   0.02005820000000   87.30000000
  2 102 39      89.43369001   0.02005820000000   87.43369001
  2 102 40      89.60000000   0.02005820000000   87.60000000
  2 102 41      86.89287680   0.02005820000000   84.89287680
  2 102 42      84.11000000   0.02005820000000   82.11000000
  2 102 43      81.96918452   0.02005820000000   79.96918452
  2 103 43      80.69190651   0.02005820000000   78.69190651
  2 103 44      79.22000000   0.02005820000000   77.22000000
  2 103 45      79.18000000   0.02005820000000   77.18000000
  2 103 46      78.03649666   0.02005820000000   76.03649666
  2 104 46      76.97174705   0.02005820000000   74.97174705
  2 104 47      75.23557892   0.02005820000000   73.23557892
  2 104 48      74.03000000   0.02005820000000   72.03000000
  2 105 48      70.48000000   0.02005820000000   68.48000000
  2 105 49      70.00057146   0.02005820000000   68.00057146
  2 105 50      69.38000000   0.02005820000000   67.38000000
  2 105 51      66.39541558   0.02005820000000   64.39541558
  2 105 52      63.37000000   0.02005820000000   61.37000000
  2 105 53      63.86451097   0.02005820000000   61.86451097
  2 105 54      64.36000000   0.02005820000000   62.36000000
  2 105 55      64.50000000   0.02005820000000   62.50000000
  2 105 56      61.85579911   0.02005820000000   59.85579911
  2 105 57      60.00000000   0.02005820000000   58.00000000
  2 106 57      59.36000000   0.02005820000000   57.36000000
  2 106 58      59.36000000   0.02005820000000   57.36000000
  2 106 59      57.98744416   0.02005820000000   55.98744416
  2 105 59      57.02217398   0.02005820000000   55.02217398
  2 105 60      55.72153117   0.02005820000000   53.72153117
  2 105 61      54.00000000   0.02005820000000   52.00000000
  2 105 62      53.07668952   0.02005820000000   51.07668952
  2 105 63      52.16729034   0.02005820000000   50.16729034
  2 105 64      51.41387083   0.02005820000000   49.41387083
  2 104 64      50.96085029   0.02005820000000   48.96085029
  2 104 65      50.36175342   0.02005820000000   48.36175342
  2 104 66      49.44000000   0.02005820000000   47.44000000
  2 104 67      49.39484672   0.02005820000000   47.39484672
  2 104 68      49.36000000   0.02005820000000   47.36000000
  2 103 68      48.16485955   0.02005820000000   46.16485955
  2 103 69      46.41978734   0.02005820000000   44.41978734
  2 103 70      44.00000000   0.02005820000000   42.00000000
  2 103 71      44.00000000   0.02005820000000   42.00000000
  2 103 72      41.00000000   0.02005820000000   39.00000000
  2 103 73      39.16000000   0.02005820000000   37.16000000
  2 102 73      39.46000000   0.02005820000000   37.46000000
  2 102 74      39.67377121   0.02005820000000   37.67377121
  2 101 74      39.79953003   0.02005820000000   37.79953003
  2 101 75      40.00000000   0.02005820000000   38.00000000
  2 101 76      34.42000000   0.02005820000000   32.42000000
  2 101 77      34.70910515   0.02005820000000   32.70910515
  2 101 78      34.85830723   0.02005820000000   32.85830723
  2 100 78      35.00000000   0.02005820000000   33.00000000
  2 100 79      34.28000000   0.02005820000000   32.28000000
  2 100 80      32.51153438   0.02005820000000   30.51153438
  2 100 81      30.75477228   0.02005820000000   28.75477228
  2 100 82      29.00000000   0.02005820000000   27.00000000
  2 100 83      29.02942790   0.02005820000000   27.02942790
  2 100 84      29.04801170   0.02005820000000   27.04801170
  2 99 84      29.06281359   0.02005820000000   27.06281359
  2 99 85      29.08867154   0.02005820000000   27.08867154
  2 99 86      29.11906979   0.02005820000000   27.11906979
  2 99 87      29.15000000   0.02005820000000   27.15000000
  2 99 88      28.31709792   0.02005820000000   26.31709792
  2 98 88      27.59088337   0.02005820000000   25.59088337
  2 98 89      26.21822354   0.02005820000000   24.21822354
  2 98 90      24.71398407   0.02005820000000   22.71398407
  2 98 91      23.72904182   0.02005820000000   21.72904182
  2 97 91      22.95900603   0.02005820000000   20.95900603
  2 97 92      21.63924383   0.02005820000000   19.63924383
  2 97 93      20.43744293   0.02005820000000   18.43744293
  2 96 93      19.60179200   0.02005820000000   17.60179200
  2 96 94      18.44000000   0.02005820000000   16.44000000
  2 96 95      17.78185612   0.02005820000000   15.78185612
  2 96 96      17.38506511   0.02005820000000   15.38506511
  2 95 96      17.05378796   0.02005820000000   15.05378796
  2 95 97      16.46062806   0.02005820000000   14.46062806
  2 95 98      15.87846140   0.02005820000000   13.87846140
  2 94 98      15.54607788   0.02005820000000   13.54607788
  2 94 99      15.13967200   0.02005820000000   13.13967200
  2 94 100      14.47535816   0.02005820000000   12.47535816
  2 94 101      13.85132973   0.02005820000000   11.85132973
  2 93 101      13.52000000   0.02005820000000   11.52000000
  2 93 102      13.42809414   0.02005820000000   11.42809414
  2 94 102      13.12719869   0.02005820000000   11.12719869
  2 94 103      12.61973296   0.02005820000000   10.61973296
  2 93 103      12.31773882   0.02005820000000   10.31773882
  2 94 104      11.95174135   0.02005820000000    9.95174135
  2 94 105      11.33115770   0.02005820000000    9.33115770
  2 94 106      10.72532524   0.02005820000000    8.72532524
  2 94 107      10.13362555   0.02005820000000    8.13362555
  2 94 108       9.54134609   0.02005820000000    7.54134609
  2 94 109       8.94766174   0.02005820000000    6.94766174
  2 94 110       8.35646148   0.02005820000000    6.35646148
  2 94 111       7.75649593   0.02005820000000    5.75649593
  2 94 112       7.36740304   0.02005820000000    5.36740304
  4 95 112       7.07146780   0.02005820000000    5.07146780
  2 95 113       6.69000000   0.02005820000000    4.69000000
  2 94 113       6.47141565   0.02005820000000    4.47141565
  2 94 114       6.14400407   0.02005820000000    4.14400407
  2 94 115       5.68949386   0.02005820000000    3.68949386
  2 94 116       5.24079097   0.02005820000000    3.24079097
  2 94 117       4.86288589   0.02005820000000    2.86288589
  2 95 117       4.57897030   0.02005820000000    2.57897030
  2 95 118       4.24587335   0.02005820000000    2.24587335
  2 96 118       3.98095329   0.02005820000000    1.98095329
  2 96 119       3.69267509   0.02005820000000    1.69267509
  2 96 120       3.44817238   0.02005820000000    1.44817238
  2 95 120       3.17101969   0.02005820000000    1.17101969
  2 95 121       2.84893659   0.02005820000000    0.84893659
  2 94 121       2.51391514   0.02005820000000    0.51391514
  2 94 122       2.02828902   0.02005820000000    0.02828902
  2 94 123       1.58001388   0.02005820000000   -0.41998612
  2 94 124       1.18259003   0.02005820000000   -0.81740997
  2 95 124       0.92275546   0.02005820000000   -1.07724454
  2 95 125       0.58000000   0.02005820000000   -1.42000000
  2 96 125       0.53080169   0.02005820000000   -1.46919831
  2 96 126       0.48311403   0.02005820000000   -1.51688597
  2 96 127       0.39880444   0.02005820000000   -1.60119556
  2 95 127       0.35496981   0.02005820000000   -1.64503019
  2 95 128       0.30645339   0.02005820000000   -1.69354661
  2 95 129       0.23969267   0.02005820000000   -1.76030733
  2 94 129       0.18814509   0.02005820000000   -1.81185491
  2 93 130       0.10000000   0.02005820000000   -1.90000000
END period  1

