BEGIN options
  READASARRAYS
END options

BEGIN period  1
  recharge
    INTERNAL  FACTOR  1.0
    3.80517484E-09  3.80517484E-09  3.80517484E-09  3.80517484E-09  3.80517484E-09  3.80517484E-09  3.80517484E-09  3.80517484E-09  3.80517484E-09  3.80517484E-09  3.80517484E-09  3.80517484E-09  3.80517484E-09  3.80517484E-09  3.80517484E-09  3.80517484E-09  3.80517484E-09  3.80517484E-09  3.80517484E-09  3.80517484E-09
    3.80517484E-09  3.80517484E-09  3.80517484E-09  3.80517484E-09  3.80517484E-09  3.80517484E-09  3.80517484E-09  3.80517484E-09  3.80517484E-09  3.80517484E-09  3.80517484E-09  3.80517484E-09  3.80517484E-09  3.80517484E-09  3.80517484E-09  3.80517484E-09  3.80517484E-09  3.80517484E-09  3.80517484E-09  3.80517484E-09
    3.80517484E-09  3.80517484E-09  3.80517484E-09  3.80517484E-09  3.80517484E-09  3.80517484E-09  3.80517484E-09  3.80517484E-09  3.80517484E-09  3.80517484E-09  3.80517484E-09  3.80517484E-09  3.80517484E-09  3.80517484E-09  3.80517484E-09  3.80517484E-09  3.80517484E-09  3.80517484E-09  3.80517484E-09  3.80517484E-09
    3.80517484E-09  3.80517484E-09  3.80517484E-09  3.80517484E-09  3.80517484E-09  3.80517484E-09  3.80517484E-09  3.80517484E-09  3.80517484E-09  3.80517484E-09  3.80517484E-09  3.80517484E-09  3.80517484E-09  3.80517484E-09  3.80517484E-09  3.80517484E-09  3.80517484E-09  3.80517484E-09  3.80517484E-09  3.80517484E-09
    3.80517484E-09  3.80517484E-09  3.80517484E-09  3.80517484E-09  3.80517484E-09  3.80517484E-09  3.80517484E-09  3.80517484E-09  3.80517484E-09  3.80517484E-09  3.80517484E-09  3.80517484E-09  3.80517484E-09  3.80517484E-09  3.80517484E-09  3.80517484E-09  3.80517484E-09  3.80517484E-09  3.80517484E-09  3.80517484E-09
    3.80517484E-09  3.80517484E-09  3.80517484E-09  3.80517484E-09  3.80517484E-09  3.80517484E-09  3.80517484E-09  3.80517484E-09  3.80517484E-09  3.80517484E-09  3.80517484E-09  3.80517484E-09  3.80517484E-09  3.80517484E-09  3.80517484E-09  3.80517484E-09  3.80517484E-09  3.80517484E-09  3.80517484E-09  3.80517484E-09
    3.80517484E-09  3.80517484E-09  3.80517484E-09  3.80517484E-09  3.80517484E-09  3.80517484E-09  3.80517484E-09  3.80517484E-09  3.80517484E-09  3.80517484E-09  3.80517484E-09  3.80517484E-09  3.80517484E-09  3.80517484E-09  3.80517484E-09  3.80517484E-09  3.80517484E-09  3.80517484E-09  3.80517484E-09  3.80517484E-09
    3.80517484E-09  3.80517484E-09  3.80517484E-09  3.80517484E-09  3.80517484E-09  3.80517484E-09  3.80517484E-09  3.80517484E-09  3.80517484E-09  3.80517484E-09  3.80517484E-09  3.80517484E-09  3.80517484E-09  3.80517484E-09  3.80517484E-09  3.80517484E-09  3.80517484E-09  3.80517484E-09  3.80517484E-09  3.80517484E-09
    3.80517484E-09  3.80517484E-09  3.80517484E-09  3.80517484E-09  3.80517484E-09  3.80517484E-09  3.80517484E-09  3.80517484E-09  3.80517484E-09  3.80517484E-09  3.80517484E-09  3.80517484E-09  3.80517484E-09  3.80517484E-09  3.80517484E-09  3.80517484E-09  3.80517484E-09  3.80517484E-09  3.80517484E-09  3.80517484E-09
    3.80517484E-09  3.80517484E-09  3.80517484E-09  3.80517484E-09  3.80517484E-09  3.80517484E-09  3.80517484E-09  3.80517484E-09  3.80517484E-09  3.80517484E-09  3.80517484E-09  3.80517484E-09  3.80517484E-09  3.80517484E-09  3.80517484E-09  3.80517484E-09  3.80517484E-09  3.80517484E-09  3.80517484E-09  3.80517484E-09
    3.80517484E-09  3.80517484E-09  3.80517484E-09  3.80517484E-09  3.80517484E-09  3.80517484E-09  3.80517484E-09  3.80517484E-09  3.80517484E-09  3.80517484E-09  3.80517484E-09  3.80517484E-09  3.80517484E-09  3.80517484E-09  3.80517484E-09  3.80517484E-09  3.80517484E-09  3.80517484E-09  3.80517484E-09  3.80517484E-09
    3.80517484E-09  3.80517484E-09  3.80517484E-09  3.80517484E-09  3.80517484E-09  3.80517484E-09  3.80517484E-09  3.80517484E-09  3.80517484E-09  3.80517484E-09  3.80517484E-09  3.80517484E-09  3.80517484E-09  3.80517484E-09  3.80517484E-09  3.80517484E-09  3.80517484E-09  3.80517484E-09  3.80517484E-09  3.80517484E-09
    3.80517484E-09  3.80517484E-09  3.80517484E-09  3.80517484E-09  3.80517484E-09  3.80517484E-09  3.80517484E-09  3.80517484E-09  3.80517484E-09  3.80517484E-09  3.80517484E-09  3.80517484E-09  3.80517484E-09  3.80517484E-09  3.80517484E-09  3.80517484E-09  3.80517484E-09  3.80517484E-09  3.80517484E-09  3.80517484E-09
    3.80517484E-09  3.80517484E-09  3.80517484E-09  3.80517484E-09  3.80517484E-09  3.80517484E-09  3.80517484E-09  3.80517484E-09  3.80517484E-09  3.80517484E-09  3.80517484E-09  3.80517484E-09  3.80517484E-09  3.80517484E-09  3.80517484E-09  3.80517484E-09  3.80517484E-09  3.80517484E-09  3.80517484E-09  3.80517484E-09
    3.80517484E-09  3.80517484E-09  3.80517484E-09  3.80517484E-09  3.80517484E-09  3.80517484E-09  3.80517484E-09  3.80517484E-09  3.80517484E-09  3.80517484E-09  3.80517484E-09  3.80517484E-09  3.80517484E-09  3.80517484E-09  3.80517484E-09  3.80517484E-09  3.80517484E-09  3.80517484E-09  3.80517484E-09  3.80517484E-09
    3.80517484E-09  3.80517484E-09  3.80517484E-09  3.80517484E-09  3.80517484E-09  3.80517484E-09  3.80517484E-09  3.80517484E-09  3.80517484E-09  3.80517484E-09  3.80517484E-09  3.80517484E-09  3.80517484E-09  3.80517484E-09  3.80517484E-09  3.80517484E-09  3.80517484E-09  3.80517484E-09  3.80517484E-09  3.80517484E-09
    3.80517484E-09  3.80517484E-09  3.80517484E-09  3.80517484E-09  3.80517484E-09  3.80517484E-09  3.80517484E-09  3.80517484E-09  3.80517484E-09  3.80517484E-09  3.80517484E-09  3.80517484E-09  3.80517484E-09  3.80517484E-09  3.80517484E-09  3.80517484E-09  3.80517484E-09  3.80517484E-09  3.80517484E-09  3.80517484E-09
    3.80517484E-09  3.80517484E-09  3.80517484E-09  3.80517484E-09  3.80517484E-09  3.80517484E-09  3.80517484E-09  3.80517484E-09  3.80517484E-09  3.80517484E-09  3.80517484E-09  3.80517484E-09  3.80517484E-09  3.80517484E-09  3.80517484E-09  3.80517484E-09  3.80517484E-09  3.80517484E-09  3.80517484E-09  3.80517484E-09
    3.80517484E-09  3.80517484E-09  3.80517484E-09  3.80517484E-09  3.80517484E-09  3.80517484E-09  3.80517484E-09  3.80517484E-09  3.80517484E-09  3.80517484E-09  3.80517484E-09  3.80517484E-09  3.80517484E-09  3.80517484E-09  3.80517484E-09  3.80517484E-09  3.80517484E-09  3.80517484E-09  3.80517484E-09  3.80517484E-09
    3.80517484E-09  3.80517484E-09  3.80517484E-09  3.80517484E-09  3.80517484E-09  3.80517484E-09  3.80517484E-09  3.80517484E-09  3.80517484E-09  3.80517484E-09  3.80517484E-09  3.80517484E-09  3.80517484E-09  3.80517484E-09  3.80517484E-09  3.80517484E-09  3.80517484E-09  3.80517484E-09  3.80517484E-09  3.80517484E-09
    3.80517484E-09  3.80517484E-09  3.80517484E-09  3.80517484E-09  3.80517484E-09  3.80517484E-09  3.80517484E-09  3.80517484E-09  3.80517484E-09  3.80517484E-09  3.80517484E-09  3.80517484E-09  3.80517484E-09  3.80517484E-09  3.80517484E-09  3.80517484E-09  3.80517484E-09  3.80517484E-09  3.80517484E-09  3.80517484E-09
    3.80517484E-09  3.80517484E-09  3.80517484E-09  3.80517484E-09  3.80517484E-09  3.80517484E-09  3.80517484E-09  3.80517484E-09  3.80517484E-09  3.80517484E-09  3.80517484E-09  3.80517484E-09  3.80517484E-09  3.80517484E-09  3.80517484E-09  3.80517484E-09  3.80517484E-09  3.80517484E-09  3.80517484E-09  3.80517484E-09
    3.80517484E-09  3.80517484E-09  3.80517484E-09  3.80517484E-09  3.80517484E-09  3.80517484E-09  3.80517484E-09  3.80517484E-09  3.80517484E-09  3.80517484E-09  3.80517484E-09  3.80517484E-09  3.80517484E-09  3.80517484E-09  3.80517484E-09  3.80517484E-09  3.80517484E-09  3.80517484E-09  3.80517484E-09  3.80517484E-09
    3.80517484E-09  3.80517484E-09  3.80517484E-09  3.80517484E-09  3.80517484E-09  3.80517484E-09  3.80517484E-09  3.80517484E-09  3.80517484E-09  3.80517484E-09  3.80517484E-09  3.80517484E-09  3.80517484E-09  3.80517484E-09  3.80517484E-09  3.80517484E-09  3.80517484E-09  3.80517484E-09  3.80517484E-09  3.80517484E-09
    3.80517484E-09  3.80517484E-09  3.80517484E-09  3.80517484E-09  3.80517484E-09  3.80517484E-09  3.80517484E-09  3.80517484E-09  3.80517484E-09  3.80517484E-09  3.80517484E-09  3.80517484E-09  3.80517484E-09  3.80517484E-09  3.80517484E-09  3.80517484E-09  3.80517484E-09  3.80517484E-09  3.80517484E-09  3.80517484E-09
    3.80517484E-09  3.80517484E-09  3.80517484E-09  3.80517484E-09  3.80517484E-09  3.80517484E-09  3.80517484E-09  3.80517484E-09  3.80517484E-09  3.80517484E-09  3.80517484E-09  3.80517484E-09  3.80517484E-09  3.80517484E-09  3.80517484E-09  3.80517484E-09  3.80517484E-09  3.80517484E-09  3.80517484E-09  3.80517484E-09
    3.80517484E-09  3.80517484E-09  3.80517484E-09  3.80517484E-09  3.80517484E-09  3.80517484E-09  3.80517484E-09  3.80517484E-09  3.80517484E-09  3.80517484E-09  3.80517484E-09  3.80517484E-09  3.80517484E-09  3.80517484E-09  3.80517484E-09  3.80517484E-09  3.80517484E-09  3.80517484E-09  3.80517484E-09  3.80517484E-09
    3.80517484E-09  3.80517484E-09  3.80517484E-09  3.80517484E-09  3.80517484E-09  3.80517484E-09  3.80517484E-09  3.80517484E-09  3.80517484E-09  3.80517484E-09  3.80517484E-09  3.80517484E-09  3.80517484E-09  3.80517484E-09  3.80517484E-09  3.80517484E-09  3.80517484E-09  3.80517484E-09  3.80517484E-09  3.80517484E-09
    3.80517484E-09  3.80517484E-09  3.80517484E-09  3.80517484E-09  3.80517484E-09  3.80517484E-09  3.80517484E-09  3.80517484E-09  3.80517484E-09  3.80517484E-09  3.80517484E-09  3.80517484E-09  3.80517484E-09  3.80517484E-09  3.80517484E-09  3.80517484E-09  3.80517484E-09  3.80517484E-09  3.80517484E-09  3.80517484E-09
    3.80517484E-09  3.80517484E-09  3.80517484E-09  3.80517484E-09  3.80517484E-09  3.80517484E-09  3.80517484E-09  3.80517484E-09  3.80517484E-09  3.80517484E-09  3.80517484E-09  3.80517484E-09  3.80517484E-09  3.80517484E-09  3.80517484E-09  3.80517484E-09  3.80517484E-09  3.80517484E-09  3.80517484E-09  3.80517484E-09
    3.80517484E-09  3.80517484E-09  3.80517484E-09  3.80517484E-09  3.80517484E-09  3.80517484E-09  3.80517484E-09  3.80517484E-09  3.80517484E-09  3.80517484E-09  3.80517484E-09  3.80517484E-09  3.80517484E-09  3.80517484E-09  3.80517484E-09  3.80517484E-09  3.80517484E-09  3.80517484E-09  3.80517484E-09  3.80517484E-09
    3.80517484E-09  3.80517484E-09  3.80517484E-09  3.80517484E-09  3.80517484E-09  3.80517484E-09  3.80517484E-09  3.80517484E-09  3.80517484E-09  3.80517484E-09  3.80517484E-09  3.80517484E-09  3.80517484E-09  3.80517484E-09  3.80517484E-09  3.80517484E-09  3.80517484E-09  3.80517484E-09  3.80517484E-09  3.80517484E-09
    3.80517484E-09  3.80517484E-09  3.80517484E-09  3.80517484E-09  3.80517484E-09  3.80517484E-09  3.80517484E-09  3.80517484E-09  3.80517484E-09  3.80517484E-09  3.80517484E-09  3.80517484E-09  3.80517484E-09  3.80517484E-09  3.80517484E-09  3.80517484E-09  3.80517484E-09  3.80517484E-09  3.80517484E-09  3.80517484E-09
    3.80517484E-09  3.80517484E-09  3.80517484E-09  3.80517484E-09  3.80517484E-09  3.80517484E-09  3.80517484E-09  3.80517484E-09  3.80517484E-09  3.80517484E-09  3.80517484E-09  3.80517484E-09  3.80517484E-09  3.80517484E-09  3.80517484E-09  3.80517484E-09  3.80517484E-09  3.80517484E-09  3.80517484E-09  3.80517484E-09
    3.80517484E-09  3.80517484E-09  3.80517484E-09  3.80517484E-09  3.80517484E-09  3.80517484E-09  3.80517484E-09  3.80517484E-09  3.80517484E-09  3.80517484E-09  3.80517484E-09  3.80517484E-09  3.80517484E-09  3.80517484E-09  3.80517484E-09  3.80517484E-09  3.80517484E-09  3.80517484E-09  3.80517484E-09  3.80517484E-09
    3.80517484E-09  3.80517484E-09  3.80517484E-09  3.80517484E-09  3.80517484E-09  3.80517484E-09  3.80517484E-09  3.80517484E-09  3.80517484E-09  3.80517484E-09  3.80517484E-09  3.80517484E-09  3.80517484E-09  3.80517484E-09  3.80517484E-09  3.80517484E-09  3.80517484E-09  3.80517484E-09  3.80517484E-09  3.80517484E-09
    3.80517484E-09  3.80517484E-09  3.80517484E-09  3.80517484E-09  3.80517484E-09  3.80517484E-09  3.80517484E-09  3.80517484E-09  3.80517484E-09  3.80517484E-09  3.80517484E-09  3.80517484E-09  3.80517484E-09  3.80517484E-09  3.80517484E-09  3.80517484E-09  3.80517484E-09  3.80517484E-09  3.80517484E-09  3.80517484E-09
    3.80517484E-09  3.80517484E-09  3.80517484E-09  3.80517484E-09  3.80517484E-09  3.80517484E-09  3.80517484E-09  3.80517484E-09  3.80517484E-09  3.80517484E-09  3.80517484E-09  3.80517484E-09  3.80517484E-09  3.80517484E-09  3.80517484E-09  3.80517484E-09  3.80517484E-09  3.80517484E-09  3.80517484E-09  3.80517484E-09
    3.80517484E-09  3.80517484E-09  3.80517484E-09  3.80517484E-09  3.80517484E-09  3.80517484E-09  3.80517484E-09  3.80517484E-09  3.80517484E-09  3.80517484E-09  3.80517484E-09  3.80517484E-09  3.80517484E-09  3.80517484E-09  3.80517484E-09  3.80517484E-09  3.80517484E-09  3.80517484E-09  3.80517484E-09  3.80517484E-09
    3.80517484E-09  3.80517484E-09  3.80517484E-09  3.80517484E-09  3.80517484E-09  3.80517484E-09  3.80517484E-09  3.80517484E-09  3.80517484E-09  3.80517484E-09  3.80517484E-09  3.80517484E-09  3.80517484E-09  3.80517484E-09  3.80517484E-09  3.80517484E-09  3.80517484E-09  3.80517484E-09  3.80517484E-09  3.80517484E-09
    3.80517484E-09  3.80517484E-09  3.80517484E-09  3.80517484E-09  3.80517484E-09  3.80517484E-09  3.80517484E-09  3.80517484E-09  3.80517484E-09  3.80517484E-09  3.80517484E-09  3.80517484E-09  3.80517484E-09  3.80517484E-09  3.80517484E-09  3.80517484E-09  3.80517484E-09  3.80517484E-09  3.80517484E-09  3.80517484E-09
    3.80517484E-09  3.80517484E-09  3.80517484E-09  3.80517484E-09  3.80517484E-09  3.80517484E-09  3.80517484E-09  3.80517484E-09  3.80517484E-09  3.80517484E-09  3.80517484E-09  3.80517484E-09  3.80517484E-09  3.80517484E-09  3.80517484E-09  3.80517484E-09  3.80517484E-09  3.80517484E-09  3.80517484E-09  3.80517484E-09
    3.80517484E-09  3.80517484E-09  3.80517484E-09  3.80517484E-09  3.80517484E-09  3.80517484E-09  3.80517484E-09  3.80517484E-09  3.80517484E-09  3.80517484E-09  3.80517484E-09  3.80517484E-09  3.80517484E-09  3.80517484E-09  3.80517484E-09  3.80517484E-09  3.80517484E-09  3.80517484E-09  3.80517484E-09  3.80517484E-09
    3.80517484E-09  3.80517484E-09  3.80517484E-09  3.80517484E-09  3.80517484E-09  3.80517484E-09  3.80517484E-09  3.80517484E-09  3.80517484E-09  3.80517484E-09  3.80517484E-09  3.80517484E-09  3.80517484E-09  3.80517484E-09  3.80517484E-09  3.80517484E-09  3.80517484E-09  3.80517484E-09  3.80517484E-09  3.80517484E-09
    3.80517484E-09  3.80517484E-09  3.80517484E-09  3.80517484E-09  3.80517484E-09  3.80517484E-09  3.80517484E-09  3.80517484E-09  3.80517484E-09  3.80517484E-09  3.80517484E-09  3.80517484E-09  3.80517484E-09  3.80517484E-09  3.80517484E-09  3.80517484E-09  3.80517484E-09  3.80517484E-09  3.80517484E-09  3.80517484E-09
    3.80517484E-09  3.80517484E-09  3.80517484E-09  3.80517484E-09  3.80517484E-09  3.80517484E-09  3.80517484E-09  3.80517484E-09  3.80517484E-09  3.80517484E-09  3.80517484E-09  3.80517484E-09  3.80517484E-09  3.80517484E-09  3.80517484E-09  3.80517484E-09  3.80517484E-09  3.80517484E-09  3.80517484E-09  3.80517484E-09
    3.80517484E-09  3.80517484E-09  3.80517484E-09  3.80517484E-09  3.80517484E-09  3.80517484E-09  3.80517484E-09  3.80517484E-09  3.80517484E-09  3.80517484E-09  3.80517484E-09  3.80517484E-09  3.80517484E-09  3.80517484E-09  3.80517484E-09  3.80517484E-09  3.80517484E-09  3.80517484E-09  3.80517484E-09  3.80517484E-09
    3.80517484E-09  3.80517484E-09  3.80517484E-09  3.80517484E-09  3.80517484E-09  3.80517484E-09  3.80517484E-09  3.80517484E-09  3.80517484E-09  3.80517484E-09  3.80517484E-09  3.80517484E-09  3.80517484E-09  3.80517484E-09  3.80517484E-09  3.80517484E-09  3.80517484E-09  3.80517484E-09  3.80517484E-09  3.80517484E-09
    3.80517484E-09  3.80517484E-09  3.80517484E-09  3.80517484E-09  3.80517484E-09  3.80517484E-09  3.80517484E-09  3.80517484E-09  3.80517484E-09  3.80517484E-09  3.80517484E-09  3.80517484E-09  3.80517484E-09  3.80517484E-09  3.80517484E-09  3.80517484E-09  3.80517484E-09  3.80517484E-09  3.80517484E-09  3.80517484E-09
    3.80517484E-09  3.80517484E-09  3.80517484E-09  3.80517484E-09  3.80517484E-09  3.80517484E-09  3.80517484E-09  3.80517484E-09  3.80517484E-09  3.80517484E-09  3.80517484E-09  3.80517484E-09  3.80517484E-09  3.80517484E-09  3.80517484E-09  3.80517484E-09  3.80517484E-09  3.80517484E-09  3.80517484E-09  3.80517484E-09
    3.80517484E-09  3.80517484E-09  3.80517484E-09  3.80517484E-09  3.80517484E-09  3.80517484E-09  3.80517484E-09  3.80517484E-09  3.80517484E-09  3.80517484E-09  3.80517484E-09  3.80517484E-09  3.80517484E-09  3.80517484E-09  3.80517484E-09  3.80517484E-09  3.80517484E-09  3.80517484E-09  3.80517484E-09  3.80517484E-09
    3.80517484E-09  3.80517484E-09  3.80517484E-09  3.80517484E-09  3.80517484E-09  3.80517484E-09  3.80517484E-09  3.80517484E-09  3.80517484E-09  3.80517484E-09  3.80517484E-09  3.80517484E-09  3.80517484E-09  3.80517484E-09  3.80517484E-09  3.80517484E-09  3.80517484E-09  3.80517484E-09  3.80517484E-09  3.80517484E-09
    3.80517484E-09  3.80517484E-09  3.80517484E-09  3.80517484E-09  3.80517484E-09  3.80517484E-09  3.80517484E-09  3.80517484E-09  3.80517484E-09  3.80517484E-09  3.80517484E-09  3.80517484E-09  3.80517484E-09  3.80517484E-09  3.80517484E-09  3.80517484E-09  3.80517484E-09  3.80517484E-09  3.80517484E-09  3.80517484E-09
    3.80517484E-09  3.80517484E-09  3.80517484E-09  3.80517484E-09  3.80517484E-09  3.80517484E-09  3.80517484E-09  3.80517484E-09  3.80517484E-09  3.80517484E-09  3.80517484E-09  3.80517484E-09  3.80517484E-09  3.80517484E-09  3.80517484E-09  3.80517484E-09  3.80517484E-09  3.80517484E-09  3.80517484E-09  3.80517484E-09
    3.80517484E-09  3.80517484E-09  3.80517484E-09  3.80517484E-09  3.80517484E-09  3.80517484E-09  3.80517484E-09  3.80517484E-09  3.80517484E-09  3.80517484E-09  3.80517484E-09  3.80517484E-09  3.80517484E-09  3.80517484E-09  3.80517484E-09  3.80517484E-09  3.80517484E-09  3.80517484E-09  3.80517484E-09  3.80517484E-09
    3.80517484E-09  3.80517484E-09  3.80517484E-09  3.80517484E-09  3.80517484E-09  3.80517484E-09  3.80517484E-09  3.80517484E-09  3.80517484E-09  3.80517484E-09  3.80517484E-09  3.80517484E-09  3.80517484E-09  3.80517484E-09  3.80517484E-09  3.80517484E-09  3.80517484E-09  3.80517484E-09  3.80517484E-09  3.80517484E-09
    3.80517484E-09  3.80517484E-09  3.80517484E-09  3.80517484E-09  3.80517484E-09  3.80517484E-09  3.80517484E-09  3.80517484E-09  3.80517484E-09  3.80517484E-09  3.80517484E-09  3.80517484E-09  3.80517484E-09  3.80517484E-09  3.80517484E-09  3.80517484E-09  3.80517484E-09  3.80517484E-09  3.80517484E-09  3.80517484E-09
    3.80517484E-09  3.80517484E-09  3.80517484E-09  3.80517484E-09  3.80517484E-09  3.80517484E-09  3.80517484E-09  3.80517484E-09  3.80517484E-09  3.80517484E-09  3.80517484E-09  3.80517484E-09  3.80517484E-09  3.80517484E-09  3.80517484E-09  3.80517484E-09  3.80517484E-09  3.80517484E-09  3.80517484E-09  3.80517484E-09
    3.80517484E-09  3.80517484E-09  3.80517484E-09  3.80517484E-09  3.80517484E-09  3.80517484E-09  3.80517484E-09  3.80517484E-09  3.80517484E-09  3.80517484E-09  3.80517484E-09  3.80517484E-09  3.80517484E-09  3.80517484E-09  3.80517484E-09  3.80517484E-09  3.80517484E-09  3.80517484E-09  3.80517484E-09  3.80517484E-09
    3.80517484E-09  3.80517484E-09  3.80517484E-09  3.80517484E-09  3.80517484E-09  3.80517484E-09  3.80517484E-09  3.80517484E-09  3.80517484E-09  3.80517484E-09  3.80517484E-09  3.80517484E-09  3.80517484E-09  3.80517484E-09  3.80517484E-09  3.80517484E-09  3.80517484E-09  3.80517484E-09  3.80517484E-09  3.80517484E-09
    3.80517484E-09  3.80517484E-09  3.80517484E-09  3.80517484E-09  3.80517484E-09  3.80517484E-09  3.80517484E-09  3.80517484E-09  3.80517484E-09  3.80517484E-09  3.80517484E-09  3.80517484E-09  3.80517484E-09  3.80517484E-09  3.80517484E-09  3.80517484E-09  3.80517484E-09  3.80517484E-09  3.80517484E-09  3.80517484E-09
    3.80517484E-09  3.80517484E-09  3.80517484E-09  3.80517484E-09  3.80517484E-09  3.80517484E-09  3.80517484E-09  3.80517484E-09  3.80517484E-09  3.80517484E-09  3.80517484E-09  3.80517484E-09  3.80517484E-09  3.80517484E-09  3.80517484E-09  3.80517484E-09  3.80517484E-09  3.80517484E-09  3.80517484E-09  3.80517484E-09
    3.80517484E-09  3.80517484E-09  3.80517484E-09  3.80517484E-09  3.80517484E-09  3.80517484E-09  3.80517484E-09  3.80517484E-09  3.80517484E-09  3.80517484E-09  3.80517484E-09  3.80517484E-09  3.80517484E-09  3.80517484E-09  3.80517484E-09  3.80517484E-09  3.80517484E-09  3.80517484E-09  3.80517484E-09  3.80517484E-09
    3.80517484E-09  3.80517484E-09  3.80517484E-09  3.80517484E-09  3.80517484E-09  3.80517484E-09  3.80517484E-09  3.80517484E-09  3.80517484E-09  3.80517484E-09  3.80517484E-09  3.80517484E-09  3.80517484E-09  3.80517484E-09  3.80517484E-09  3.80517484E-09  3.80517484E-09  3.80517484E-09  3.80517484E-09  3.80517484E-09
    3.80517484E-09  3.80517484E-09  3.80517484E-09  3.80517484E-09  3.80517484E-09  3.80517484E-09  3.80517484E-09  3.80517484E-09  3.80517484E-09  3.80517484E-09  3.80517484E-09  3.80517484E-09  3.80517484E-09  3.80517484E-09  3.80517484E-09  3.80517484E-09  3.80517484E-09  3.80517484E-09  3.80517484E-09  3.80517484E-09
    3.80517484E-09  3.80517484E-09  3.80517484E-09  3.80517484E-09  3.80517484E-09  3.80517484E-09  3.80517484E-09  3.80517484E-09  3.80517484E-09  3.80517484E-09  3.80517484E-09  3.80517484E-09  3.80517484E-09  3.80517484E-09  3.80517484E-09  3.80517484E-09  3.80517484E-09  3.80517484E-09  3.80517484E-09  3.80517484E-09
    3.80517484E-09  3.80517484E-09  3.80517484E-09  3.80517484E-09  3.80517484E-09  3.80517484E-09  3.80517484E-09  3.80517484E-09  3.80517484E-09  3.80517484E-09  3.80517484E-09  3.80517484E-09  3.80517484E-09  3.80517484E-09  3.80517484E-09  3.80517484E-09  3.80517484E-09  3.80517484E-09  3.80517484E-09  3.80517484E-09
    3.80517484E-09  3.80517484E-09  3.80517484E-09  3.80517484E-09  3.80517484E-09  3.80517484E-09  3.80517484E-09  3.80517484E-09  3.80517484E-09  3.80517484E-09  3.80517484E-09  3.80517484E-09  3.80517484E-09  3.80517484E-09  3.80517484E-09  3.80517484E-09  3.80517484E-09  3.80517484E-09  3.80517484E-09  3.80517484E-09
    3.80517484E-09  3.80517484E-09  3.80517484E-09  3.80517484E-09  3.80517484E-09  3.80517484E-09  3.80517484E-09  3.80517484E-09  3.80517484E-09  3.80517484E-09  3.80517484E-09  3.80517484E-09  3.80517484E-09  3.80517484E-09  3.80517484E-09  3.80517484E-09  3.80517484E-09  3.80517484E-09  3.80517484E-09  3.80517484E-09
    3.80517484E-09  3.80517484E-09  3.80517484E-09  3.80517484E-09  3.80517484E-09  3.80517484E-09  3.80517484E-09  3.80517484E-09  3.80517484E-09  3.80517484E-09  3.80517484E-09  3.80517484E-09  3.80517484E-09  3.80517484E-09  3.80517484E-09  3.80517484E-09  3.80517484E-09  3.80517484E-09  3.80517484E-09  3.80517484E-09
    3.80517484E-09  3.80517484E-09  3.80517484E-09  3.80517484E-09  3.80517484E-09  3.80517484E-09  3.80517484E-09  3.80517484E-09  3.80517484E-09  3.80517484E-09  3.80517484E-09  3.80517484E-09  3.80517484E-09  3.80517484E-09  3.80517484E-09  3.80517484E-09  3.80517484E-09  3.80517484E-09  3.80517484E-09  3.80517484E-09
    3.80517484E-09  3.80517484E-09  3.80517484E-09  3.80517484E-09  3.80517484E-09  3.80517484E-09  3.80517484E-09  3.80517484E-09  3.80517484E-09  3.80517484E-09  3.80517484E-09  3.80517484E-09  3.80517484E-09  3.80517484E-09  3.80517484E-09  3.80517484E-09  3.80517484E-09  3.80517484E-09  3.80517484E-09  3.80517484E-09
    3.80517484E-09  3.80517484E-09  3.80517484E-09  3.80517484E-09  3.80517484E-09  3.80517484E-09  3.80517484E-09  3.80517484E-09  3.80517484E-09  3.80517484E-09  3.80517484E-09  3.80517484E-09  3.80517484E-09  3.80517484E-09  3.80517484E-09  3.80517484E-09  3.80517484E-09  3.80517484E-09  3.80517484E-09  3.80517484E-09
    3.80517484E-09  3.80517484E-09  3.80517484E-09  3.80517484E-09  3.80517484E-09  3.80517484E-09  3.80517484E-09  3.80517484E-09  3.80517484E-09  3.80517484E-09  3.80517484E-09  3.80517484E-09  3.80517484E-09  3.80517484E-09  3.80517484E-09  3.80517484E-09  3.80517484E-09  3.80517484E-09  3.80517484E-09  3.80517484E-09
    3.80517484E-09  3.80517484E-09  3.80517484E-09  3.80517484E-09  3.80517484E-09  3.80517484E-09  3.80517484E-09  3.80517484E-09  3.80517484E-09  3.80517484E-09  3.80517484E-09  3.80517484E-09  3.80517484E-09  3.80517484E-09  3.80517484E-09  3.80517484E-09  3.80517484E-09  3.80517484E-09  3.80517484E-09  3.80517484E-09
    3.80517484E-09  3.80517484E-09  3.80517484E-09  3.80517484E-09  3.80517484E-09  3.80517484E-09  3.80517484E-09  3.80517484E-09  3.80517484E-09  3.80517484E-09  3.80517484E-09  3.80517484E-09  3.80517484E-09  3.80517484E-09  3.80517484E-09  3.80517484E-09  3.80517484E-09  3.80517484E-09  3.80517484E-09  3.80517484E-09
    3.80517484E-09  3.80517484E-09  3.80517484E-09  3.80517484E-09  3.80517484E-09  3.80517484E-09  3.80517484E-09  3.80517484E-09  3.80517484E-09  3.80517484E-09  3.80517484E-09  3.80517484E-09  3.80517484E-09  3.80517484E-09  3.80517484E-09  3.80517484E-09  3.80517484E-09  3.80517484E-09  3.80517484E-09  3.80517484E-09
    3.80517484E-09  3.80517484E-09  3.80517484E-09  3.80517484E-09  3.80517484E-09  3.80517484E-09  3.80517484E-09  3.80517484E-09  3.80517484E-09  3.80517484E-09  3.80517484E-09  3.80517484E-09  3.80517484E-09  3.80517484E-09  3.80517484E-09  3.80517484E-09  3.80517484E-09  3.80517484E-09  3.80517484E-09  3.80517484E-09
    3.80517484E-09  3.80517484E-09  3.80517484E-09  3.80517484E-09  3.80517484E-09  3.80517484E-09  3.80517484E-09  3.80517484E-09  3.80517484E-09  3.80517484E-09  3.80517484E-09  3.80517484E-09  3.80517484E-09  3.80517484E-09  3.80517484E-09  3.80517484E-09  3.80517484E-09  3.80517484E-09  3.80517484E-09  3.80517484E-09
    3.80517484E-09  3.80517484E-09  3.80517484E-09  3.80517484E-09  3.80517484E-09  3.80517484E-09  3.80517484E-09  3.80517484E-09  3.80517484E-09  3.80517484E-09  3.80517484E-09  3.80517484E-09  3.80517484E-09  3.80517484E-09  3.80517484E-09  3.80517484E-09  3.80517484E-09  3.80517484E-09  3.80517484E-09  3.80517484E-09
    3.80517484E-09  3.80517484E-09  3.80517484E-09  3.80517484E-09  3.80517484E-09  3.80517484E-09  3.80517484E-09  3.80517484E-09  3.80517484E-09  3.80517484E-09  3.80517484E-09  3.80517484E-09  3.80517484E-09  3.80517484E-09  3.80517484E-09  3.80517484E-09  3.80517484E-09  3.80517484E-09  3.80517484E-09  3.80517484E-09
    3.80517484E-09  3.80517484E-09  3.80517484E-09  3.80517484E-09  3.80517484E-09  3.80517484E-09  3.80517484E-09  3.80517484E-09  3.80517484E-09  3.80517484E-09  3.80517484E-09  3.80517484E-09  3.80517484E-09  3.80517484E-09  3.80517484E-09  3.80517484E-09  3.80517484E-09  3.80517484E-09  3.80517484E-09  3.80517484E-09
    3.80517484E-09  3.80517484E-09  3.80517484E-09  3.80517484E-09  3.80517484E-09  3.80517484E-09  3.80517484E-09  3.80517484E-09  3.80517484E-09  3.80517484E-09  3.80517484E-09  3.80517484E-09  3.80517484E-09  3.80517484E-09  3.80517484E-09  3.80517484E-09  3.80517484E-09  3.80517484E-09  3.80517484E-09  3.80517484E-09
    3.80517484E-09  3.80517484E-09  3.80517484E-09  3.80517484E-09  3.80517484E-09  3.80517484E-09  3.80517484E-09  3.80517484E-09  3.80517484E-09  3.80517484E-09  3.80517484E-09  3.80517484E-09  3.80517484E-09  3.80517484E-09  3.80517484E-09  3.80517484E-09  3.80517484E-09  3.80517484E-09  3.80517484E-09  3.80517484E-09
    3.80517484E-09  3.80517484E-09  3.80517484E-09  3.80517484E-09  3.80517484E-09  3.80517484E-09  7.11746884E-10  3.80517484E-09  -6.53989307E-10  3.80517484E-09  3.80517484E-09  3.80517484E-09  3.80517484E-09  3.80517484E-09  3.80517484E-09  3.80517484E-09  3.80517484E-09  3.80517484E-09  3.80517484E-09  3.80517484E-09
    3.80517484E-09  3.80517484E-09  3.80517484E-09  3.80517484E-09  3.80517484E-09  3.80517484E-09  3.80517484E-09  3.80517484E-09  3.80517484E-09  3.80517484E-09  3.80517484E-09  3.80517484E-09  3.80517484E-09  3.80517484E-09  3.80517484E-09  3.80517484E-09  3.80517484E-09  3.80517484E-09  3.80517484E-09  3.80517484E-09
    3.80517484E-09  3.80517484E-09  3.80517484E-09  3.80517484E-09  3.80517484E-09  3.80517484E-09  3.80517484E-09  3.80517484E-09  3.80517484E-09  3.80517484E-09  3.80517484E-09  3.80517484E-09  3.80517484E-09  3.80517484E-09  3.80517484E-09  3.80517484E-09  3.80517484E-09  3.80517484E-09  3.80517484E-09  3.80517484E-09
    3.80517484E-09  3.80517484E-09  3.80517484E-09  3.80517484E-09  3.80517484E-09  3.80517484E-09  3.80517484E-09  3.80517484E-09  3.80517484E-09  3.80517484E-09  3.80517484E-09  3.80517484E-09  3.80517484E-09  3.80517484E-09  3.80517484E-09  3.80517484E-09  3.80517484E-09  3.80517484E-09  3.80517484E-09  3.80517484E-09
    3.80517484E-09  3.80517484E-09  3.80517484E-09  3.80517484E-09  3.80517484E-09  3.80517484E-09  3.80517484E-09  3.80517484E-09  3.80517484E-09  3.80517484E-09  3.80517484E-09  3.80517484E-09  3.80517484E-09  3.80517484E-09  3.80517484E-09  3.80517484E-09  3.80517484E-09  3.80517484E-09  3.80517484E-09  3.80517484E-09
    3.80517484E-09  3.80517484E-09  3.80517484E-09  3.80517484E-09  3.80517484E-09  3.80517484E-09  -2.60638569E-08  3.80517484E-09  3.80517484E-09  3.80517484E-09  3.80517484E-09  3.80517484E-09  3.80517484E-09  3.80517484E-09  3.80517484E-09  3.80517484E-09  3.80517484E-09  3.80517484E-09  3.80517484E-09  3.80517484E-09
    3.80517484E-09  3.80517484E-09  3.80517484E-09  3.80517484E-09  3.80517484E-09  3.80517484E-09  3.80517484E-09  3.80517484E-09  3.80517484E-09  3.80517484E-09  3.80517484E-09  3.80517484E-09  3.80517484E-09  3.80517484E-09  3.80517484E-09  3.80517484E-09  3.80517484E-09  3.80517484E-09  3.80517484E-09  3.80517484E-09
    3.80517484E-09  3.80517484E-09  3.80517484E-09  3.80517484E-09  3.80517484E-09  3.80517484E-09  3.80517484E-09  3.80517484E-09  3.80517484E-09  3.80517484E-09  3.80517484E-09  3.80517484E-09  3.80517484E-09  3.80517484E-09  3.80517484E-09  3.80517484E-09  3.80517484E-09  3.80517484E-09  3.80517484E-09  3.80517484E-09