BEGIN MODFLOW_GRID basegrid
	ROTATION_ANGLE = 0
	X_OFFSET = 660022.5
	Y_OFFSET = 6149977.5
	LENGTH_UNIT = undefined
	NLAY = 1
	NROW = 183
	NCOL = 153
	DELR =  CONSTANT 300.0
	DELC =  CONSTANT 300.0
	TOP =  CONSTANT 1.0
	BOTTOM LAYER 1 =  CONSTANT 0.0
END MODFLOW_GRID

BEGIN QUADTREE quadtreegrid
	MODFLOW_GRID = basegrid
	STRUCTURE_File  = OPEN/CLOSE quadtreegrid.tsf
	TOP LAYER 1 = OPEN/CLOSE quadtreegrid.top1.dat
	BOTTOM LAYER 1 = OPEN/CLOSE quadtreegrid.bot1.dat
END QUADTREE
