BEGIN options
  SAVE_FLOWS
END options

BEGIN dimensions
  MAXBOUND  22
END dimensions

BEGIN period  1
  2 116 33     115.00000000
  2 117 33     115.00000000
  2 127 44     115.00000000
  2 118 34     115.00000000
  2 128 43     115.00000000
  2 118 35     115.00000000
  2 128 42     115.00000000
  2 128 41     115.00000000
  2 128 40     115.00000000
  2 119 36     115.00000000
  2 120 36     115.00000000
  2 123 41     115.00000000
  2 124 41     115.00000000
  2 125 41     115.00000000
  2 126 41     115.00000000
  2 127 40     115.00000000
  2 121 37     115.00000000
  2 122 40     115.00000000
  2 121 38     115.00000000
  2 122 39     115.00000000
  2 115 32     115.00000000
  2 127 45     115.00000000
END period  1

