BEGIN options
  SAVE_FLOWS
END options

BEGIN dimensions
  MAXBOUND  169
END dimensions

BEGIN period  1
  1 14 130       0.00000000
  1 14 131       0.00000000
  1 15 131       0.00000000
  1 15 132       0.00000000
  1 15 133       0.00000000
  1 16 133       0.00000000
  1 16 134       0.00000000
  1 17 134       0.00000000
  1 17 135       0.00000000
  1 18 135       0.00000000
  1 19 135       0.00000000
  1 20 135       0.00000000
  1 21 134       0.00000000
  1 21 135       0.00000000
  1 22 134       0.00000000
  1 23 134       0.00000000
  1 24 134       0.00000000
  1 25 134       0.00000000
  1 26 133       0.00000000
  1 26 134       0.00000000
  1 27 133       0.00000000
  1 28 133       0.00000000
  1 29 133       0.00000000
  1 30 133       0.00000000
  1 31 133       0.00000000
  1 32 133       0.00000000
  1 33 132       0.00000000
  1 33 133       0.00000000
  1 34 132       0.00000000
  1 35 132       0.00000000
  1 36 132       0.00000000
  1 37 132       0.00000000
  1 38 132       0.00000000
  1 39 132       0.00000000
  1 40 131       0.00000000
  1 40 132       0.00000000
  1 41 131       0.00000000
  1 42 131       0.00000000
  1 43 131       0.00000000
  1 44 131       0.00000000
  1 45 131       0.00000000
  1 46 131       0.00000000
  1 47 131       0.00000000
  1 48 130       0.00000000
  1 48 131       0.00000000
  1 49 130       0.00000000
  1 50 130       0.00000000
  1 51 130       0.00000000
  1 52 130       0.00000000
  1 53 130       0.00000000
  1 54 130       0.00000000
  1 55 130       0.00000000
  1 56 130       0.00000000
  1 57 130       0.00000000
  1 58 130       0.00000000
  1 59 130       0.00000000
  1 60 130       0.00000000
  1 61 130       0.00000000
  1 62 130       0.00000000
  1 63 130       0.00000000
  1 64 130       0.00000000
  1 65 130       0.00000000
  1 66 129       0.00000000
  1 66 130       0.00000000
  1 67 129       0.00000000
  1 68 129       0.00000000
  1 69 129       0.00000000
  1 70 129       0.00000000
  1 71 129       0.00000000
  1 72 129       0.00000000
  1 73 129       0.00000000
  1 74 129       0.00000000
  1 75 129       0.00000000
  1 76 129       0.00000000
  1 77 129       0.00000000
  1 78 129       0.00000000
  1 79 129       0.00000000
  1 80 129       0.00000000
  1 81 129       0.00000000
  1 82 129       0.00000000
  1 83 129       0.00000000
  1 84 129       0.00000000
  1 85 129       0.00000000
  1 86 129       0.00000000
  1 87 129       0.00000000
  1 88 129       0.00000000
  1 89 129       0.00000000
  1 89 130       0.00000000
  1 90 130       0.00000000
  1 91 130       0.00000000
  1 92 130       0.00000000
  1 93 130       0.00000000
  1 94 130       0.00000000
  1 95 129       0.00000000
  1 95 130       0.00000000
  1 96 129       0.00000000
  1 97 129       0.00000000
  1 98 129       0.00000000
  1 99 129       0.00000000
  1 100 129       0.00000000
  1 101 129       0.00000000
  1 102 129       0.00000000
  1 103 129       0.00000000
  1 104 129       0.00000000
  1 105 129       0.00000000
  1 106 128       0.00000000
  1 106 129       0.00000000
  1 107 128       0.00000000
  1 108 128       0.00000000
  1 109 128       0.00000000
  1 110 128       0.00000000
  1 111 128       0.00000000
  1 112 128       0.00000000
  1 113 128       0.00000000
  1 114 128       0.00000000
  1 115 128       0.00000000
  1 116 128       0.00000000
  1 117 128       0.00000000
  1 118 128       0.00000000
  1 119 128       0.00000000
  1 119 129       0.00000000
  1 120 129       0.00000000
  1 121 129       0.00000000
  1 122 129       0.00000000
  1 123 129       0.00000000
  1 124 129       0.00000000
  1 125 129       0.00000000
  1 126 129       0.00000000
  1 127 129       0.00000000
  1 128 129       0.00000000
  1 129 129       0.00000000
  1 129 130       0.00000000
  1 130 130       0.00000000
  1 131 130       0.00000000
  1 132 130       0.00000000
  1 133 130       0.00000000
  1 134 130       0.00000000
  1 135 130       0.00000000
  1 135 131       0.00000000
  1 136 131       0.00000000
  1 137 131       0.00000000
  1 138 131       0.00000000
  1 139 131       0.00000000
  1 140 131       0.00000000
  1 141 131       0.00000000
  1 142 131       0.00000000
  1 143 131       0.00000000
  1 144 131       0.00000000
  1 144 132       0.00000000
  1 145 132       0.00000000
  1 146 132       0.00000000
  1 147 132       0.00000000
  1 148 132       0.00000000
  1 149 132       0.00000000
  1 150 132       0.00000000
  1 151 132       0.00000000
  1 152 132       0.00000000
  1 153 132       0.00000000
  1 154 132       0.00000000
  1 155 132       0.00000000
  1 156 132       0.00000000
  1 156 133       0.00000000
  1 157 133       0.00000000
  1 158 133       0.00000000
  1 158 134       0.00000000
  1 159 134       0.00000000
  1 160 134       0.00000000
  1 160 135       0.00000000
  1 161 135       0.00000000
END period  1

