pcf
* control data
             restart          estimation
       539       222         6         0         3         0
        11         3              single               point         1         0         0          noobsreref
   2.000000E+01  -3.000000E+00   3.000000E-01   1.000000E-02        -7       999          lamforgive        noderforgive
   1.000000E+01   1.000000E+01   1.000000E-03         0         0
   1.000000E-01         1   1.100000E+00               noaui          nosenreuse        noboundscale
         7   1.000000E-02         3         3   1.000000E-02         3   0.000000E+00         1  -1.000000E+00
         0         0         0         0             jcosave          verboserec          jcosaveitn          reisaveitn          parsaveitn        noparsaverun
* singular value decomposition
         1
  10000000    5.000000E-07
1
* parameter groups
 kp_pc_inst:0            relative              1.0000000000E-02       0.0  switch                2.0000000000E+00       parabolic              1.0000000000E-05       5.0000000000E-01       smaller              
 kp_q_inst:0             relative              1.0000000000E-02       0.0  switch                2.0000000000E+00       parabolic              1.0000000000E-05       5.0000000000E-01       smaller              
 irr__multiplier         relative              1.0000000000E-02       0.0  switch                2.0000000000E+00       parabolic              1.0000000000E-05       5.0000000000E-01       smaller              
 cond                    relative              1.0000000000E-02       0.0  switch                2.0000000000E+00       parabolic              1.0000000000E-05       5.0000000000E-01       smaller              
 ep__multiplier          relative              1.0000000000E-02       0.0  switch                2.0000000000E+00       parabolic              1.0000000000E-05       5.0000000000E-01       smaller              
 pms__multiplier         relative              1.0000000000E-02       0.0  switch                2.0000000000E+00       parabolic              1.0000000000E-05       5.0000000000E-01       smaller              
* parameter data
          kp_q_inst:0_i:15_j:135   log                    factor                1.0000000000E+00      5.0000000000E-03      5.0000000000E+00       kp_q_inst:0           1.0000000000E+00      0.0000000000E+00       1          
          kp_q_inst:0_i:21_j:135   log                    factor                1.0000000000E+00      5.0000000000E-03      5.0000000000E+00       kp_q_inst:0           1.0000000000E+00      0.0000000000E+00       1          
          kp_q_inst:0_i:27_j:123   log                    factor                1.0000000000E+00      5.0000000000E-03      5.0000000000E+00       kp_q_inst:0           1.0000000000E+00      0.0000000000E+00       1          
          kp_q_inst:0_i:27_j:129   log                    factor                1.0000000000E+00      5.0000000000E-03      5.0000000000E+00       kp_q_inst:0           1.0000000000E+00      0.0000000000E+00       1          
          kp_q_inst:0_i:27_j:135   log                    factor                1.0000000000E+00      5.0000000000E-03      5.0000000000E+00       kp_q_inst:0           1.0000000000E+00      0.0000000000E+00       1          
          kp_q_inst:0_i:33_j:123   log                    factor                1.0000000000E+00      5.0000000000E-03      5.0000000000E+00       kp_q_inst:0           1.0000000000E+00      0.0000000000E+00       1          
          kp_q_inst:0_i:33_j:129   log                    factor                1.0000000000E+00      5.0000000000E-03      5.0000000000E+00       kp_q_inst:0           1.0000000000E+00      0.0000000000E+00       1          
          kp_q_inst:0_i:33_j:135   log                    factor                1.0000000000E+00      5.0000000000E-03      5.0000000000E+00       kp_q_inst:0           1.0000000000E+00      0.0000000000E+00       1          
          kp_q_inst:0_i:39_j:111   log                    factor                1.0000000000E+00      5.0000000000E-03      5.0000000000E+00       kp_q_inst:0           1.0000000000E+00      0.0000000000E+00       1          
          kp_q_inst:0_i:39_j:117   log                    factor                1.0000000000E+00      5.0000000000E-03      5.0000000000E+00       kp_q_inst:0           1.0000000000E+00      0.0000000000E+00       1          
          kp_q_inst:0_i:39_j:123   log                    factor                1.0000000000E+00      5.0000000000E-03      5.0000000000E+00       kp_q_inst:0           1.0000000000E+00      0.0000000000E+00       1          
          kp_q_inst:0_i:39_j:129   log                    factor                1.0000000000E+00      5.0000000000E-03      5.0000000000E+00       kp_q_inst:0           1.0000000000E+00      0.0000000000E+00       1          
          kp_q_inst:0_i:39_j:135   log                    factor                1.0000000000E+00      5.0000000000E-03      5.0000000000E+00       kp_q_inst:0           1.0000000000E+00      0.0000000000E+00       1          
           kp_q_inst:0_i:45_j:99   log                    factor                1.0000000000E+00      5.0000000000E-03      5.0000000000E+00       kp_q_inst:0           1.0000000000E+00      0.0000000000E+00       1          
          kp_q_inst:0_i:45_j:105   log                    factor                1.0000000000E+00      5.0000000000E-03      5.0000000000E+00       kp_q_inst:0           1.0000000000E+00      0.0000000000E+00       1          
          kp_q_inst:0_i:45_j:111   log                    factor                1.0000000000E+00      5.0000000000E-03      5.0000000000E+00       kp_q_inst:0           1.0000000000E+00      0.0000000000E+00       1          
          kp_q_inst:0_i:45_j:117   log                    factor                1.0000000000E+00      5.0000000000E-03      5.0000000000E+00       kp_q_inst:0           1.0000000000E+00      0.0000000000E+00       1          
          kp_q_inst:0_i:45_j:123   log                    factor                1.0000000000E+00      5.0000000000E-03      5.0000000000E+00       kp_q_inst:0           1.0000000000E+00      0.0000000000E+00       1          
          kp_q_inst:0_i:45_j:129   log                    factor                1.0000000000E+00      5.0000000000E-03      5.0000000000E+00       kp_q_inst:0           1.0000000000E+00      0.0000000000E+00       1          
          kp_q_inst:0_i:45_j:135   log                    factor                1.0000000000E+00      5.0000000000E-03      5.0000000000E+00       kp_q_inst:0           1.0000000000E+00      0.0000000000E+00       1          
           kp_q_inst:0_i:51_j:87   log                    factor                1.0000000000E+00      5.0000000000E-03      5.0000000000E+00       kp_q_inst:0           1.0000000000E+00      0.0000000000E+00       1          
           kp_q_inst:0_i:51_j:93   log                    factor                1.0000000000E+00      5.0000000000E-03      5.0000000000E+00       kp_q_inst:0           1.0000000000E+00      0.0000000000E+00       1          
           kp_q_inst:0_i:51_j:99   log                    factor                1.0000000000E+00      5.0000000000E-03      5.0000000000E+00       kp_q_inst:0           1.0000000000E+00      0.0000000000E+00       1          
          kp_q_inst:0_i:51_j:105   log                    factor                1.0000000000E+00      5.0000000000E-03      5.0000000000E+00       kp_q_inst:0           1.0000000000E+00      0.0000000000E+00       1          
          kp_q_inst:0_i:51_j:111   log                    factor                1.0000000000E+00      5.0000000000E-03      5.0000000000E+00       kp_q_inst:0           1.0000000000E+00      0.0000000000E+00       1          
          kp_q_inst:0_i:51_j:117   log                    factor                1.0000000000E+00      5.0000000000E-03      5.0000000000E+00       kp_q_inst:0           1.0000000000E+00      0.0000000000E+00       1          
          kp_q_inst:0_i:51_j:123   log                    factor                1.0000000000E+00      5.0000000000E-03      5.0000000000E+00       kp_q_inst:0           1.0000000000E+00      0.0000000000E+00       1          
          kp_q_inst:0_i:51_j:129   log                    factor                1.0000000000E+00      5.0000000000E-03      5.0000000000E+00       kp_q_inst:0           1.0000000000E+00      0.0000000000E+00       1          
          kp_q_inst:0_i:51_j:135   log                    factor                1.0000000000E+00      5.0000000000E-03      5.0000000000E+00       kp_q_inst:0           1.0000000000E+00      0.0000000000E+00       1          
           kp_q_inst:0_i:57_j:75   log                    factor                1.0000000000E+00      5.0000000000E-03      5.0000000000E+00       kp_q_inst:0           1.0000000000E+00      0.0000000000E+00       1          
           kp_q_inst:0_i:57_j:81   log                    factor                1.0000000000E+00      5.0000000000E-03      5.0000000000E+00       kp_q_inst:0           1.0000000000E+00      0.0000000000E+00       1          
           kp_q_inst:0_i:57_j:87   log                    factor                1.0000000000E+00      5.0000000000E-03      5.0000000000E+00       kp_q_inst:0           1.0000000000E+00      0.0000000000E+00       1          
           kp_q_inst:0_i:57_j:93   log                    factor                1.0000000000E+00      5.0000000000E-03      5.0000000000E+00       kp_q_inst:0           1.0000000000E+00      0.0000000000E+00       1          
           kp_q_inst:0_i:57_j:99   log                    factor                1.0000000000E+00      5.0000000000E-03      5.0000000000E+00       kp_q_inst:0           1.0000000000E+00      0.0000000000E+00       1          
          kp_q_inst:0_i:57_j:105   log                    factor                1.0000000000E+00      5.0000000000E-03      5.0000000000E+00       kp_q_inst:0           1.0000000000E+00      0.0000000000E+00       1          
          kp_q_inst:0_i:57_j:111   log                    factor                1.0000000000E+00      5.0000000000E-03      5.0000000000E+00       kp_q_inst:0           1.0000000000E+00      0.0000000000E+00       1          
          kp_q_inst:0_i:57_j:117   log                    factor                1.0000000000E+00      5.0000000000E-03      5.0000000000E+00       kp_q_inst:0           1.0000000000E+00      0.0000000000E+00       1          
          kp_q_inst:0_i:57_j:123   log                    factor                1.0000000000E+00      5.0000000000E-03      5.0000000000E+00       kp_q_inst:0           1.0000000000E+00      0.0000000000E+00       1          
          kp_q_inst:0_i:57_j:129   log                    factor                1.0000000000E+00      5.0000000000E-03      5.0000000000E+00       kp_q_inst:0           1.0000000000E+00      0.0000000000E+00       1          
          kp_q_inst:0_i:57_j:135   log                    factor                1.0000000000E+00      5.0000000000E-03      5.0000000000E+00       kp_q_inst:0           1.0000000000E+00      0.0000000000E+00       1          
           kp_q_inst:0_i:63_j:75   log                    factor                1.0000000000E+00      5.0000000000E-03      5.0000000000E+00       kp_q_inst:0           1.0000000000E+00      0.0000000000E+00       1          
           kp_q_inst:0_i:63_j:81   log                    factor                1.0000000000E+00      5.0000000000E-03      5.0000000000E+00       kp_q_inst:0           1.0000000000E+00      0.0000000000E+00       1          
           kp_q_inst:0_i:63_j:87   log                    factor                1.0000000000E+00      5.0000000000E-03      5.0000000000E+00       kp_q_inst:0           1.0000000000E+00      0.0000000000E+00       1          
           kp_q_inst:0_i:63_j:93   log                    factor                1.0000000000E+00      5.0000000000E-03      5.0000000000E+00       kp_q_inst:0           1.0000000000E+00      0.0000000000E+00       1          
           kp_q_inst:0_i:63_j:99   log                    factor                1.0000000000E+00      5.0000000000E-03      5.0000000000E+00       kp_q_inst:0           1.0000000000E+00      0.0000000000E+00       1          
          kp_q_inst:0_i:63_j:105   log                    factor                1.0000000000E+00      5.0000000000E-03      5.0000000000E+00       kp_q_inst:0           1.0000000000E+00      0.0000000000E+00       1          
          kp_q_inst:0_i:63_j:111   log                    factor                1.0000000000E+00      5.0000000000E-03      5.0000000000E+00       kp_q_inst:0           1.0000000000E+00      0.0000000000E+00       1          
          kp_q_inst:0_i:63_j:117   log                    factor                1.0000000000E+00      5.0000000000E-03      5.0000000000E+00       kp_q_inst:0           1.0000000000E+00      0.0000000000E+00       1          
          kp_q_inst:0_i:63_j:123   log                    factor                1.0000000000E+00      5.0000000000E-03      5.0000000000E+00       kp_q_inst:0           1.0000000000E+00      0.0000000000E+00       1          
          kp_q_inst:0_i:63_j:129   log                    factor                1.0000000000E+00      5.0000000000E-03      5.0000000000E+00       kp_q_inst:0           1.0000000000E+00      0.0000000000E+00       1          
          kp_q_inst:0_i:63_j:135   log                    factor                1.0000000000E+00      5.0000000000E-03      5.0000000000E+00       kp_q_inst:0           1.0000000000E+00      0.0000000000E+00       1          
           kp_q_inst:0_i:69_j:75   log                    factor                1.0000000000E+00      5.0000000000E-03      5.0000000000E+00       kp_q_inst:0           1.0000000000E+00      0.0000000000E+00       1          
           kp_q_inst:0_i:69_j:81   log                    factor                1.0000000000E+00      5.0000000000E-03      5.0000000000E+00       kp_q_inst:0           1.0000000000E+00      0.0000000000E+00       1          
           kp_q_inst:0_i:69_j:87   log                    factor                1.0000000000E+00      5.0000000000E-03      5.0000000000E+00       kp_q_inst:0           1.0000000000E+00      0.0000000000E+00       1          
           kp_q_inst:0_i:69_j:93   log                    factor                1.0000000000E+00      5.0000000000E-03      5.0000000000E+00       kp_q_inst:0           1.0000000000E+00      0.0000000000E+00       1          
           kp_q_inst:0_i:69_j:99   log                    factor                1.0000000000E+00      5.0000000000E-03      5.0000000000E+00       kp_q_inst:0           1.0000000000E+00      0.0000000000E+00       1          
          kp_q_inst:0_i:69_j:105   log                    factor                1.0000000000E+00      5.0000000000E-03      5.0000000000E+00       kp_q_inst:0           1.0000000000E+00      0.0000000000E+00       1          
          kp_q_inst:0_i:69_j:111   log                    factor                1.0000000000E+00      5.0000000000E-03      5.0000000000E+00       kp_q_inst:0           1.0000000000E+00      0.0000000000E+00       1          
          kp_q_inst:0_i:69_j:117   log                    factor                1.0000000000E+00      5.0000000000E-03      5.0000000000E+00       kp_q_inst:0           1.0000000000E+00      0.0000000000E+00       1          
          kp_q_inst:0_i:69_j:123   log                    factor                1.0000000000E+00      5.0000000000E-03      5.0000000000E+00       kp_q_inst:0           1.0000000000E+00      0.0000000000E+00       1          
          kp_q_inst:0_i:69_j:129   log                    factor                1.0000000000E+00      5.0000000000E-03      5.0000000000E+00       kp_q_inst:0           1.0000000000E+00      0.0000000000E+00       1          
          kp_q_inst:0_i:69_j:135   log                    factor                1.0000000000E+00      5.0000000000E-03      5.0000000000E+00       kp_q_inst:0           1.0000000000E+00      0.0000000000E+00       1          
           kp_q_inst:0_i:75_j:81   log                    factor                1.0000000000E+00      5.0000000000E-03      5.0000000000E+00       kp_q_inst:0           1.0000000000E+00      0.0000000000E+00       1          
           kp_q_inst:0_i:75_j:87   log                    factor                1.0000000000E+00      5.0000000000E-03      5.0000000000E+00       kp_q_inst:0           1.0000000000E+00      0.0000000000E+00       1          
           kp_q_inst:0_i:75_j:93   log                    factor                1.0000000000E+00      5.0000000000E-03      5.0000000000E+00       kp_q_inst:0           1.0000000000E+00      0.0000000000E+00       1          
           kp_q_inst:0_i:75_j:99   log                    factor                1.0000000000E+00      5.0000000000E-03      5.0000000000E+00       kp_q_inst:0           1.0000000000E+00      0.0000000000E+00       1          
          kp_q_inst:0_i:75_j:105   log                    factor                1.0000000000E+00      5.0000000000E-03      5.0000000000E+00       kp_q_inst:0           1.0000000000E+00      0.0000000000E+00       1          
          kp_q_inst:0_i:75_j:111   log                    factor                1.0000000000E+00      5.0000000000E-03      5.0000000000E+00       kp_q_inst:0           1.0000000000E+00      0.0000000000E+00       1          
          kp_q_inst:0_i:75_j:117   log                    factor                1.0000000000E+00      5.0000000000E-03      5.0000000000E+00       kp_q_inst:0           1.0000000000E+00      0.0000000000E+00       1          
          kp_q_inst:0_i:75_j:123   log                    factor                1.0000000000E+00      5.0000000000E-03      5.0000000000E+00       kp_q_inst:0           1.0000000000E+00      0.0000000000E+00       1          
          kp_q_inst:0_i:75_j:129   log                    factor                1.0000000000E+00      5.0000000000E-03      5.0000000000E+00       kp_q_inst:0           1.0000000000E+00      0.0000000000E+00       1          
          kp_q_inst:0_i:75_j:135   log                    factor                1.0000000000E+00      5.0000000000E-03      5.0000000000E+00       kp_q_inst:0           1.0000000000E+00      0.0000000000E+00       1          
           kp_q_inst:0_i:81_j:93   log                    factor                1.0000000000E+00      5.0000000000E-03      5.0000000000E+00       kp_q_inst:0           1.0000000000E+00      0.0000000000E+00       1          
           kp_q_inst:0_i:81_j:99   log                    factor                1.0000000000E+00      5.0000000000E-03      5.0000000000E+00       kp_q_inst:0           1.0000000000E+00      0.0000000000E+00       1          
          kp_q_inst:0_i:81_j:105   log                    factor                1.0000000000E+00      5.0000000000E-03      5.0000000000E+00       kp_q_inst:0           1.0000000000E+00      0.0000000000E+00       1          
          kp_q_inst:0_i:81_j:111   log                    factor                1.0000000000E+00      5.0000000000E-03      5.0000000000E+00       kp_q_inst:0           1.0000000000E+00      0.0000000000E+00       1          
          kp_q_inst:0_i:81_j:117   log                    factor                1.0000000000E+00      5.0000000000E-03      5.0000000000E+00       kp_q_inst:0           1.0000000000E+00      0.0000000000E+00       1          
          kp_q_inst:0_i:81_j:123   log                    factor                1.0000000000E+00      5.0000000000E-03      5.0000000000E+00       kp_q_inst:0           1.0000000000E+00      0.0000000000E+00       1          
          kp_q_inst:0_i:81_j:129   log                    factor                1.0000000000E+00      5.0000000000E-03      5.0000000000E+00       kp_q_inst:0           1.0000000000E+00      0.0000000000E+00       1          
          kp_q_inst:0_i:81_j:135   log                    factor                1.0000000000E+00      5.0000000000E-03      5.0000000000E+00       kp_q_inst:0           1.0000000000E+00      0.0000000000E+00       1          
           kp_q_inst:0_i:87_j:87   log                    factor                1.0000000000E+00      5.0000000000E-03      5.0000000000E+00       kp_q_inst:0           1.0000000000E+00      0.0000000000E+00       1          
           kp_q_inst:0_i:87_j:93   log                    factor                1.0000000000E+00      5.0000000000E-03      5.0000000000E+00       kp_q_inst:0           1.0000000000E+00      0.0000000000E+00       1          
           kp_q_inst:0_i:87_j:99   log                    factor                1.0000000000E+00      5.0000000000E-03      5.0000000000E+00       kp_q_inst:0           1.0000000000E+00      0.0000000000E+00       1          
          kp_q_inst:0_i:87_j:105   log                    factor                1.0000000000E+00      5.0000000000E-03      5.0000000000E+00       kp_q_inst:0           1.0000000000E+00      0.0000000000E+00       1          
          kp_q_inst:0_i:87_j:111   log                    factor                1.0000000000E+00      5.0000000000E-03      5.0000000000E+00       kp_q_inst:0           1.0000000000E+00      0.0000000000E+00       1          
          kp_q_inst:0_i:87_j:117   log                    factor                1.0000000000E+00      5.0000000000E-03      5.0000000000E+00       kp_q_inst:0           1.0000000000E+00      0.0000000000E+00       1          
          kp_q_inst:0_i:87_j:123   log                    factor                1.0000000000E+00      5.0000000000E-03      5.0000000000E+00       kp_q_inst:0           1.0000000000E+00      0.0000000000E+00       1          
          kp_q_inst:0_i:87_j:129   log                    factor                1.0000000000E+00      5.0000000000E-03      5.0000000000E+00       kp_q_inst:0           1.0000000000E+00      0.0000000000E+00       1          
          kp_q_inst:0_i:87_j:135   log                    factor                1.0000000000E+00      5.0000000000E-03      5.0000000000E+00       kp_q_inst:0           1.0000000000E+00      0.0000000000E+00       1          
           kp_q_inst:0_i:93_j:81   log                    factor                1.0000000000E+00      5.0000000000E-03      5.0000000000E+00       kp_q_inst:0           1.0000000000E+00      0.0000000000E+00       1          
           kp_q_inst:0_i:93_j:87   log                    factor                1.0000000000E+00      5.0000000000E-03      5.0000000000E+00       kp_q_inst:0           1.0000000000E+00      0.0000000000E+00       1          
           kp_q_inst:0_i:93_j:93   log                    factor                1.0000000000E+00      5.0000000000E-03      5.0000000000E+00       kp_q_inst:0           1.0000000000E+00      0.0000000000E+00       1          
           kp_q_inst:0_i:93_j:99   log                    factor                1.0000000000E+00      5.0000000000E-03      5.0000000000E+00       kp_q_inst:0           1.0000000000E+00      0.0000000000E+00       1          
          kp_q_inst:0_i:93_j:105   log                    factor                1.0000000000E+00      5.0000000000E-03      5.0000000000E+00       kp_q_inst:0           1.0000000000E+00      0.0000000000E+00       1          
          kp_q_inst:0_i:93_j:111   log                    factor                1.0000000000E+00      5.0000000000E-03      5.0000000000E+00       kp_q_inst:0           1.0000000000E+00      0.0000000000E+00       1          
          kp_q_inst:0_i:93_j:117   log                    factor                1.0000000000E+00      5.0000000000E-03      5.0000000000E+00       kp_q_inst:0           1.0000000000E+00      0.0000000000E+00       1          
          kp_q_inst:0_i:93_j:123   log                    factor                1.0000000000E+00      5.0000000000E-03      5.0000000000E+00       kp_q_inst:0           1.0000000000E+00      0.0000000000E+00       1          
          kp_q_inst:0_i:93_j:129   log                    factor                1.0000000000E+00      5.0000000000E-03      5.0000000000E+00       kp_q_inst:0           1.0000000000E+00      0.0000000000E+00       1          
          kp_q_inst:0_i:93_j:135   log                    factor                1.0000000000E+00      5.0000000000E-03      5.0000000000E+00       kp_q_inst:0           1.0000000000E+00      0.0000000000E+00       1          
           kp_q_inst:0_i:99_j:27   log                    factor                1.0000000000E+00      5.0000000000E-03      5.0000000000E+00       kp_q_inst:0           1.0000000000E+00      0.0000000000E+00       1          
           kp_q_inst:0_i:99_j:33   log                    factor                1.0000000000E+00      5.0000000000E-03      5.0000000000E+00       kp_q_inst:0           1.0000000000E+00      0.0000000000E+00       1          
           kp_q_inst:0_i:99_j:39   log                    factor                1.0000000000E+00      5.0000000000E-03      5.0000000000E+00       kp_q_inst:0           1.0000000000E+00      0.0000000000E+00       1          
           kp_q_inst:0_i:99_j:45   log                    factor                1.0000000000E+00      5.0000000000E-03      5.0000000000E+00       kp_q_inst:0           1.0000000000E+00      0.0000000000E+00       1          
           kp_q_inst:0_i:99_j:51   log                    factor                1.0000000000E+00      5.0000000000E-03      5.0000000000E+00       kp_q_inst:0           1.0000000000E+00      0.0000000000E+00       1          
           kp_q_inst:0_i:99_j:57   log                    factor                1.0000000000E+00      5.0000000000E-03      5.0000000000E+00       kp_q_inst:0           1.0000000000E+00      0.0000000000E+00       1          
           kp_q_inst:0_i:99_j:63   log                    factor                1.0000000000E+00      5.0000000000E-03      5.0000000000E+00       kp_q_inst:0           1.0000000000E+00      0.0000000000E+00       1          
           kp_q_inst:0_i:99_j:69   log                    factor                1.0000000000E+00      5.0000000000E-03      5.0000000000E+00       kp_q_inst:0           1.0000000000E+00      0.0000000000E+00       1          
           kp_q_inst:0_i:99_j:75   log                    factor                1.0000000000E+00      5.0000000000E-03      5.0000000000E+00       kp_q_inst:0           1.0000000000E+00      0.0000000000E+00       1          
           kp_q_inst:0_i:99_j:81   log                    factor                1.0000000000E+00      5.0000000000E-03      5.0000000000E+00       kp_q_inst:0           1.0000000000E+00      0.0000000000E+00       1          
           kp_q_inst:0_i:99_j:87   log                    factor                1.0000000000E+00      5.0000000000E-03      5.0000000000E+00       kp_q_inst:0           1.0000000000E+00      0.0000000000E+00       1          
          kp_q_inst:0_i:99_j:123   log                    factor                1.0000000000E+00      5.0000000000E-03      5.0000000000E+00       kp_q_inst:0           1.0000000000E+00      0.0000000000E+00       1          
          kp_q_inst:0_i:99_j:129   log                    factor                1.0000000000E+00      5.0000000000E-03      5.0000000000E+00       kp_q_inst:0           1.0000000000E+00      0.0000000000E+00       1          
          kp_q_inst:0_i:99_j:135   log                    factor                1.0000000000E+00      5.0000000000E-03      5.0000000000E+00       kp_q_inst:0           1.0000000000E+00      0.0000000000E+00       1          
          kp_q_inst:0_i:105_j:21   log                    factor                1.0000000000E+00      5.0000000000E-03      5.0000000000E+00       kp_q_inst:0           1.0000000000E+00      0.0000000000E+00       1          
          kp_q_inst:0_i:105_j:27   log                    factor                1.0000000000E+00      5.0000000000E-03      5.0000000000E+00       kp_q_inst:0           1.0000000000E+00      0.0000000000E+00       1          
          kp_q_inst:0_i:105_j:33   log                    factor                1.0000000000E+00      5.0000000000E-03      5.0000000000E+00       kp_q_inst:0           1.0000000000E+00      0.0000000000E+00       1          
          kp_q_inst:0_i:105_j:39   log                    factor                1.0000000000E+00      5.0000000000E-03      5.0000000000E+00       kp_q_inst:0           1.0000000000E+00      0.0000000000E+00       1          
          kp_q_inst:0_i:105_j:45   log                    factor                1.0000000000E+00      5.0000000000E-03      5.0000000000E+00       kp_q_inst:0           1.0000000000E+00      0.0000000000E+00       1          
          kp_q_inst:0_i:105_j:51   log                    factor                1.0000000000E+00      5.0000000000E-03      5.0000000000E+00       kp_q_inst:0           1.0000000000E+00      0.0000000000E+00       1          
          kp_q_inst:0_i:105_j:57   log                    factor                1.0000000000E+00      5.0000000000E-03      5.0000000000E+00       kp_q_inst:0           1.0000000000E+00      0.0000000000E+00       1          
          kp_q_inst:0_i:105_j:63   log                    factor                1.0000000000E+00      5.0000000000E-03      5.0000000000E+00       kp_q_inst:0           1.0000000000E+00      0.0000000000E+00       1          
          kp_q_inst:0_i:105_j:69   log                    factor                1.0000000000E+00      5.0000000000E-03      5.0000000000E+00       kp_q_inst:0           1.0000000000E+00      0.0000000000E+00       1          
          kp_q_inst:0_i:105_j:75   log                    factor                1.0000000000E+00      5.0000000000E-03      5.0000000000E+00       kp_q_inst:0           1.0000000000E+00      0.0000000000E+00       1          