BEGIN options
END options

BEGIN packages
  DIS6  flux_bc.dis  dis
  IC6  flux_bc.ic  ic
  NPF6  flux_bc.npf  npf
  RCH6  flux_bc.rcha  rch
  OC6  flux_bc.oc  oc
  CHD6  sea.chd  sea
END packages

