BEGIN options
  BUDGET  FILEOUT  flux_bc.cbc
  HEAD  FILEOUT  flux_bc.hds
END options

BEGIN period  1
  SAVE  HEAD  LAST
  SAVE  BUDGET  ALL
  PRINT  HEAD  LAST
  PRINT  BUDGET  ALL
END period  1

