BEGIN options
END options

BEGIN timing
  TDIS6  theis_mf6.tdis
END timing

BEGIN models
  gwf6  flux_bc.nam  flux_bc
END models

BEGIN exchanges
END exchanges

BEGIN solutiongroup  1
  ims6  theis_mf6.ims  flux_bc
END solutiongroup  1

