BEGIN options
  BUDGET  FILEOUT  I3D_2400.cbc
  HEAD  FILEOUT  I3D_2400.hds
END options

BEGIN period  1
  SAVE  HEAD  LAST
  SAVE  BUDGET  LAST
  PRINT  BUDGET  ALL
END period  1

