BEGIN options
  SAVE_FLOWS
END options

BEGIN dimensions
  MAXBOUND  9495
END dimensions

BEGIN period  1
  2 12 137  2.34984190E-09
  5 13 125  2.47188826E-09
  4 13 126  2.46399711E-09
  4 13 127  2.45730687E-09
  5 14 123  2.49798899E-09
  4 14 124  2.46253877E-09
  4 14 125  2.43744374E-09
  4 14 126  2.43123711E-09
  4 14 127  2.42606521E-09
  4 14 128  2.42272106E-09
  4 14 129  2.41942311E-09
  4 15 124  2.44493983E-09
  4 15 125  2.42259356E-09
  4 15 126  2.41713110E-09
  4 15 127  2.41263780E-09
  4 15 128  2.40957961E-09
  4 15 129  2.40625215E-09
  4 15 130  2.37525725E-09
  4 15 131  2.37309806E-09
  4 15 132  2.37017389E-09
  4 16 124  2.43359033E-09
  4 16 125  2.41247910E-09
  4 16 126  2.40756750E-09
  4 16 127  2.40356483E-09
  4 16 128  2.40067744E-09
  4 16 129  2.39737417E-09
  4 16 130  2.37736830E-09
  4 16 131  2.37494371E-09
  4 16 132  2.37182818E-09
  4 16 133  2.36855927E-09
  4 17 124  2.42326975E-09
  4 17 125  2.40321742E-09
  4 17 126  2.39897258E-09
  4 17 127  2.39553940E-09
  4 17 128  2.39300595E-09
  4 17 129  2.38983792E-09
  4 17 130  2.37896816E-09
  4 17 131  2.37636044E-09
  4 17 132  2.37312539E-09
  4 17 133  2.36980471E-09
  4 17 134  2.36757463E-09
  4 18 124  2.41027200E-09
  4 18 125  2.39259080E-09
  4 18 126  2.38951350E-09
  4 18 127  2.38699504E-09
  4 18 128  2.38507076E-09
  4 18 129  2.38233771E-09
  4 18 130  2.37952387E-09
  4 18 131  2.37684792E-09
  4 18 132  2.37397601E-09
  4 18 133  2.37089435E-09
  4 18 134  2.36879467E-09
  4 19 125  2.39085304E-09
  4 19 126  2.38812677E-09
  4 19 127  2.38553526E-09
  4 19 128  2.38355896E-09
  4 19 129  2.38077729E-09
  4 19 130  2.37788796E-09
  4 19 131  2.37590174E-09
  4 19 132  2.37387246E-09
  4 19 133  2.37187681E-09
  4 19 134  2.36985818E-09
  4 20 125  2.38638950E-09
  4 20 126  2.38419063E-09
  4 20 127  2.38202974E-09
  4 20 128  2.38013013E-09
  4 20 129  2.37867833E-09
  4 20 130  2.37653438E-09
  4 20 131  2.37481912E-09
  4 20 132  2.37310822E-09
  4 20 133  2.37150449E-09
  4 20 134  2.37002898E-09
  4 21 128  2.37811755E-09
  4 21 129  2.37682953E-09
  4 21 130  2.37525507E-09
  4 21 131  2.37393004E-09
  4 21 132  2.37264324E-09
  4 21 133  2.37152892E-09
  4 21 134  2.37037735E-09
  4 22 129  2.37490718E-09
  4 22 130  2.37390391E-09
  4 22 131  2.37291976E-09
  4 22 132  2.37199052E-09
  2 22 133  2.37127175E-09
  2 22 134  2.37059267E-09
  4 23 127  2.37623052E-09
  4 23 128  2.37444583E-09
  4 23 129  2.37367336E-09
  4 23 130  2.37328095E-09
  4 23 131  2.37263501E-09
  2 23 132  2.37205100E-09
  2 23 133  2.37143675E-09
  2 23 134  2.37091273E-09
  4 24 128  2.37341208E-09
  2 24 132  2.37171400E-09
  2 24 133  2.37131506E-09
  2 24 134  2.37074943E-09
  2 25 133  2.37045912E-09
  2 25 134  2.37004761E-09
  2 26 133  2.36732037E-09
  2 27 132  2.36334043E-09
  2 27 133  2.36299787E-09
  2 28 132  2.36141325E-09
  2 28 133  2.36088416E-09
  2 29 133  2.35750130E-09
  2 30 132  2.35560750E-09
  2 30 133  2.35536557E-09
  2 31 132  2.33433441E-09
  2 31 133  2.33329292E-09
  2 32 131  2.31630895E-09
  2 32 132  2.31480562E-09
  2 32 133  2.31325197E-09
  2 33 131  2.29824720E-09
  2 33 132  2.29633284E-09
  2 34 130  2.28138081E-09
  2 34 131  2.27915775E-09
  2 34 132  2.27687275E-09
  2 35 129  2.26658701E-09
  2 35 130  2.26421637E-09
  2 35 131  2.26178646E-09
  2 35 132  2.25929607E-09
  2 36 129  2.24876380E-09
  2 36 130  2.24925539E-09
  2 36 131  2.24975860E-09
  2 36 132  2.25027342E-09
  2 37 116  2.26106794E-09
  2 37 128  2.24467137E-09
  2 37 129  2.24504200E-09
  2 37 130  2.24542061E-09
  2 37 131  2.24621220E-09
  2 37 132  2.24662517E-09
  2 38 115  2.23430941E-09
  2 38 128  2.24065684E-09
  2 38 129  2.24093409E-09
  2 38 130  2.24121738E-09
  2 38 131  2.24180865E-09
  2 38 132  2.24211711E-09
  2 39 113  2.29727345E-09
  2 39 127  2.23868175E-09
  2 39 128  2.23890747E-09
  2 39 129  2.23913778E-09
  2 39 130  2.23961801E-09
  2 39 131  2.24012823E-09
  2 40 111  2.36943239E-09
  2 40 127  2.23759284E-09
  2 40 128  2.23779243E-09
  2 40 129  2.23799589E-09
  2 40 130  2.23841926E-09
  2 40 131  2.23886949E-09
  2 41 108  2.42103580E-09
  2 41 109  2.42252098E-09
  2 41 110  2.42721847E-09
  2 41 127  2.23598330E-09
  2 41 128  2.23615434E-09
  2 41 129  2.23632829E-09
  2 41 130  2.23669118E-09
  2 41 131  2.23707729E-09
  4 42 106  2.47132966E-09
  2 42 107  2.47110176E-09
  2 42 108  2.45744743E-09
  2 42 125  2.23325340E-09
  2 42 128  2.23521204E-09
  2 42 129  2.23536712E-09
  2 42 130  2.23568960E-09
  2 42 131  2.23591314E-09
  4 43 103  2.49333408E-09
  4 43 104  2.49396333E-09
  4 43 105  2.49421663E-09
  4 43 106  2.49379592E-09
  2 43 107  2.49583246E-09
  2 43 108  2.48555252E-09
  2 43 128  2.23389669E-09
  2 43 129  2.23402225E-09
  2 43 130  2.23428377E-09
  2 43 131  2.23458884E-09
  2 44 99  2.56706457E-09
  2 44 101  2.55689108E-09
  2 44 102  2.53117018E-09
  4 44 103  2.51131430E-09
  4 44 104  2.50869134E-09
  4 44 105  2.50921922E-09
  2 44 106  2.50474189E-09
  2 44 107  2.50109194E-09
  2 44 124  2.23188337E-09
  2 44 129  2.23348759E-09
  2 44 130  2.23365016E-09
  2 44 131  2.23393322E-09
  2 45 98  2.61704079E-09
  2 45 99  2.60477076E-09
  2 45 100  2.59762352E-09
  2 45 101  2.58100632E-09
  2 45 102  2.54763715E-09
  2 45 103  2.52002269E-09
  2 45 104  2.51689240E-09
  2 45 105  2.51254184E-09
  2 45 106  2.50727945E-09
  2 45 127  2.23297495E-09
  2 45 129  2.23309688E-09
  2 45 130  2.23325219E-09
  2 45 131  2.23352702E-09
  2 46 97  2.70334444E-09
  2 46 98  2.67348926E-09
  2 46 99  2.64656380E-09
  2 46 100  2.62760620E-09
  2 46 101  2.60226658E-09
  2 46 102  2.56420718E-09
  2 46 103  2.52618045E-09
  2 46 104  2.52198157E-09
  2 46 105  2.51688781E-09
  2 46 106  2.51328625E-09
  2 46 127  2.23116945E-09
  2 46 129  2.23133831E-09
  2 46 130  2.23141573E-09
  2 47 97  2.75659440E-09
  2 47 98  2.71582132E-09
  2 47 99  2.67956911E-09
  2 47 100  2.65238407E-09
  2 47 101  2.62072533E-09
  2 47 102  2.57909727E-09
  2 47 103  2.53379242E-09
  2 47 104  2.52968427E-09
  2 47 105  2.52526427E-09
  2 47 106  2.52107918E-09
  2 47 126  2.23040012E-09
  2 47 127  2.23046496E-09
  2 47 129  2.23067302E-09
  2 47 130  2.23071898E-09
  2 48 96  2.84987135E-09
  2 48 97  2.79113933E-09
  2 48 98  2.73211313E-09
  2 48 99  2.69087724E-09
  2 48 100  2.65853554E-09
  2 48 101  2.62422625E-09
  2 48 102  2.58456796E-09
  2 48 103  2.54166906E-09
  2 48 104  2.53629443E-09
  2 48 105  2.53116413E-09
  2 48 125  2.22953814E-09
  2 48 126  2.22990345E-09
  2 48 127  2.22995788E-09
  2 48 128  2.23001352E-09
  2 48 129  2.23019328E-09
  2 48 130  2.23021577E-09
  2 49 96  2.86702466E-09
  2 49 97  2.80646223E-09
  2 49 98  2.74818697E-09
  2 49 99  2.70476286E-09
  2 49 100  2.66921248E-09
  2 49 101  2.63153799E-09
  2 49 102  2.59220606E-09
  2 49 103  2.54995045E-09
  2 49 104  2.54317941E-09
  2 49 129  2.22961459E-09
  2 49 130  2.22960781E-09
  2 50 95  2.94796287E-09
  2 50 96  2.88449345E-09
  2 50 97  2.82435463E-09
  2 50 98  2.76503570E-09
  2 50 99  2.71869637E-09
  2 50 100  2.67936880E-09
  2 50 101  2.64060540E-09
  2 50 102  2.60047487E-09
  2 50 103  2.55694310E-09
  2 50 104  2.54847736E-09
  2 50 107  2.52850754E-09
  2 50 108  2.52392472E-09
  2 50 129  2.22909178E-09
  2 50 130  2.22912590E-09
  2 51 92  3.17772072E-09
  2 51 93  3.08913643E-09
  2 51 94  3.03273755E-09
  2 51 95  2.96235701E-09
  2 51 96  2.89992522E-09
  2 51 97  2.83931706E-09
  2 51 98  2.77923872E-09
  2 51 99  2.73140888E-09
  2 51 100  2.69019622E-09
  2 51 101  2.64975094E-09
  2 51 102  2.60726550E-09
  2 51 103  2.56193404E-09
  2 51 104  2.55211739E-09
  2 51 105  2.54472774E-09
  2 51 106  2.53764583E-09
  2 51 107  2.53122098E-09
  2 51 108  2.52640786E-09
  2 51 123  2.22840689E-09
  2 51 128  2.22861301E-09
  2 51 129  2.22866406E-09
  2 51 130  2.22868801E-09
  2 52 86  3.03093931E-09
  2 52 87  3.04881091E-09
  2 52 88  3.05801476E-09
  2 52 91  3.06857050E-09
  2 52 92  3.05950212E-09
  2 52 93  3.00089591E-09
  2 52 94  2.96344133E-09
  2 52 95  2.90809749E-09
  2 52 96  2.85701326E-09
  2 52 97  2.80684351E-09
  2 52 98  2.75502454E-09
  2 52 99  2.71402259E-09
  2 52 100  2.67839770E-09
  2 52 101  2.64301377E-09
  2 52 102  2.60445287E-09
  2 52 103  2.56495812E-09
  2 52 104  2.55163378E-09
  2 52 105  2.54037379E-09
  2 52 106  2.53240280E-09
  2 52 107  2.52490961E-09
  2 52 108  2.51853654E-09
  2 52 109  2.51436451E-09
  2 52 123  2.22824819E-09
  2 52 127  2.22949798E-09
  2 52 128  2.22953717E-09
  2 52 129  2.22963152E-09
  2 52 130  2.22967531E-09
  2 53 87  2.93621879E-09
  2 53 88  2.94493855E-09
  2 53 89  2.96608583E-09
  2 53 90  2.96916942E-09
  2 53 91  2.96678040E-09
  2 53 92  2.96413396E-09
  2 53 93  2.92632932E-09
  2 53 94  2.89276177E-09
  2 53 95  2.85168023E-09
  2 53 96  2.81229726E-09
  2 53 97  2.77165021E-09
  2 53 98  2.72778313E-09
  2 53 99  2.69346319E-09
  2 53 100  2.66343237E-09
  2 53 101  2.63313882E-09
  2 53 102  2.59868751E-09
  2 53 103  2.56551141E-09
  2 53 104  2.54928733E-09
  2 53 105  2.53483222E-09
  2 53 106  2.52634205E-09
  2 53 107  2.51813252E-09
  2 53 108  2.51061659E-09
  2 53 109  2.50444335E-09
  2 53 127  2.22945467E-09
  2 53 128  2.22949387E-09
  2 53 129  2.22958725E-09
  2 53 130  2.22963080E-09
  2 54 88  2.86999092E-09
  2 54 89  2.87356732E-09
  2 54 90  2.87568563E-09
  2 54 91  2.87503775E-09
  2 54 92  2.87409521E-09
  2 54 93  2.84730451E-09
  2 54 94  2.82537701E-09
  2 54 95  2.79569408E-09
  2 54 96  2.76619163E-09
  2 54 97  2.73390605E-09
  2 54 98  2.69725999E-09
  2 54 99  2.66920813E-09
  2 54 100  2.64446969E-09
  2 54 101  2.61819284E-09
  2 54 102  2.59024718E-09
  2 54 103  2.56401703E-09
  2 54 104  2.54546538E-09
  2 54 105  2.52848963E-09
  2 54 106  2.51668072E-09
  2 54 107  2.50774056E-09
  2 54 108  2.49904016E-09
  2 54 109  2.49083039E-09
  2 54 126  2.22943387E-09
  2 54 127  2.22947524E-09
  2 54 128  2.22951733E-09
  2 54 129  2.22961918E-09
  2 54 130  2.22966708E-09
  2 55 80  2.69754788E-09
  2 55 82  2.71594518E-09
  2 55 83  2.72026720E-09
  2 55 84  2.72596892E-09
  2 55 85  2.73135106E-09
  2 55 88  2.77755201E-09
  2 55 89  2.78498351E-09
  2 55 90  2.79136529E-09
  2 55 91  2.79462912E-09
  2 55 92  2.79238525E-09
  2 55 93  2.77264671E-09
  2 55 94  2.75989452E-09
  2 55 95  2.73969559E-09
  2 55 96  2.71879169E-09
  2 55 97  2.69407478E-09
  2 55 98  2.66425637E-09
  2 55 99  2.64228727E-09
  2 55 100  2.62203342E-09
  2 55 101  2.60022399E-09
  2 55 102  2.57942654E-09
  2 55 103  2.56044184E-09
  2 55 104  2.54268346E-09
  2 55 105  2.52410955E-09
  2 55 106  2.51017362E-09
  2 55 107  2.50140911E-09
  2 55 108  2.49267967E-09
  2 55 109  2.48403830E-09
  2 55 125  2.22956209E-09
  2 55 126  2.22960612E-09
  2 55 127  2.22965136E-09
  2 55 128  2.22969757E-09
  2 55 129  2.22981224E-09
  2 55 130  2.22986450E-09
  2 56 78  2.61455886E-09
  2 56 79  2.60871585E-09
  2 56 80  2.60658666E-09
  2 56 81  2.61149631E-09
  2 56 82  2.62069557E-09
  2 56 83  2.62300573E-09
  2 56 84  2.63243844E-09
  2 56 85  2.64151746E-09
  2 56 86  2.65436642E-09
  2 56 87  2.67218019E-09
  2 56 88  2.68554639E-09
  2 56 89  2.70616482E-09
  2 56 90  2.71367059E-09
  2 56 91  2.71867387E-09
  2 56 92  2.71871379E-09
  2 56 93  2.70812225E-09
  2 56 94  2.69404793E-09
  2 56 95  2.68156235E-09
  2 56 96  2.66794503E-09
  2 56 97  2.64984118E-09
  2 56 98  2.62614859E-09
  2 56 99  2.60980863E-09
  2 56 100  2.59422252E-09
  2 56 101  2.57999434E-09
  2 56 102  2.56711223E-09
  2 56 103  2.55569693E-09
  2 56 104  2.53882401E-09
  2 56 105  2.51885636E-09
  2 56 106  2.50313791E-09
  2 56 107  2.49180317E-09
  2 56 108  2.48272633E-09
  2 56 109  2.47318838E-09
  2 56 127  2.22959789E-09
  2 56 128  2.22968208E-09
  2 56 129  2.22983764E-09
  2 56 130  2.22994070E-09
  2 57 77  2.53503738E-09
  2 57 78  2.53859224E-09
  2 57 79  2.54152028E-09
  2 57 80  2.54475121E-09
  2 57 81  2.55219867E-09
  2 57 82  2.56411089E-09
  2 57 83  2.58146573E-09
  2 57 84  2.59249541E-09
  2 57 85  2.60317598E-09
  2 57 86  2.61713973E-09
  2 57 87  2.63080374E-09
  2 57 88  2.64121263E-09
  2 57 89  2.64980852E-09
  2 57 90  2.65635118E-09
  2 57 91  2.66103101E-09
  2 57 92  2.66130269E-09
  2 57 93  2.65727873E-09
  2 57 94  2.64894968E-09
  2 57 95  2.64246557E-09
  2 57 96  2.63476577E-09
  2 57 97  2.62228624E-09
  2 57 98  2.60875553E-09
  2 57 99  2.59573141E-09
  2 57 100  2.58298673E-09
  2 57 101  2.57102419E-09
  2 57 102  2.55993355E-09
  2 57 103  2.54989166E-09
  2 57 104  2.53383718E-09
  2 57 105  2.51244289E-09
  2 57 106  2.49499805E-09
  2 57 107  2.48133453E-09
  2 57 108  2.46907321E-09
  2 57 109  2.45821748E-09
  2 57 110  2.44945684E-09
  2 57 125  2.22957346E-09
  2 57 126  2.22965184E-09
  2 57 127  2.22973458E-09
  2 57 128  2.22986958E-09
  2 57 129  2.23005997E-09
  2 57 130  2.23023392E-09
  2 58 75  2.53026755E-09
  2 58 76  2.53115518E-09
  2 58 77  2.53525438E-09
  2 58 78  2.53907634E-09
  2 58 79  2.54244299E-09
  2 58 80  2.54616212E-09
  2 58 81  2.54832954E-09
  2 58 82  2.55490341E-09
  2 58 83  2.56711223E-09
  2 58 84  2.57865382E-09
  2 58 85  2.58987994E-09
  2 58 86  2.59970095E-09
  2 58 87  2.60987879E-09
  2 58 88  2.61757133E-09
  2 58 89  2.62392481E-09
  2 58 90  2.62881608E-09
  2 58 91  2.63230949E-09
  2 58 92  2.63513278E-09
  2 58 93  2.63381016E-09
  2 58 94  2.62808691E-09
  2 58 95  2.62090266E-09
  2 58 96  2.61254240E-09
  2 58 97  2.60311695E-09
  2 58 98  2.59281039E-09
  2 58 99  2.58254134E-09
  2 58 100  2.57222825E-09
  2 58 101  2.56224129E-09
  2 58 102  2.55273817E-09
  2 58 103  2.54391148E-09
  2 58 104  2.52868438E-09
  2 58 105  2.50765516E-09
  2 58 106  2.48861337E-09
  2 58 107  2.47297839E-09
  2 58 108  2.45820079E-09
  2 58 109  2.44394333E-09
  2 58 110  2.43096519E-09
  2 58 127  2.22861519E-09
  2 58 128  2.22869648E-09
  2 58 129  2.22878986E-09
  2 59 74  2.52656946E-09
  2 59 75  2.53058327E-09
  2 59 76  2.53156041E-09
  2 59 77  2.53536664E-09
  2 59 78  2.53922875E-09
  2 59 79  2.54280515E-09
  2 59 80  2.54673573E-09
  2 59 81  2.54934588E-09
  2 59 82  2.55226666E-09
  2 59 83  2.56058409E-09
  2 59 84  2.56842154E-09
  2 59 85  2.57625754E-09
  2 59 86  2.58292310E-09
  2 59 87  2.59033355E-09
  2 59 88  2.59569537E-09
  2 59 89  2.60007690E-09
  2 59 90  2.60337339E-09
  2 59 91  2.60557903E-09
  2 59 92  2.60762501E-09
  2 59 93  2.60827313E-09
  2 59 94  2.60430844E-09
  2 59 95  2.59919871E-09
  2 59 96  2.59309659E-09
  2 59 97  2.58611508E-09
  2 59 98  2.57843609E-09
  2 59 99  2.57050622E-09
  2 59 100  2.56225314E-09
  2 59 101  2.55395893E-09
  2 59 102  2.54582560E-09
  2 59 103  2.53804210E-09
  2 59 104  2.52350038E-09
  2 59 105  2.50268793E-09
  2 59 106  2.48213627E-09
  2 59 107  2.46473982E-09
  2 59 108  2.44784488E-09
  2 59 109  2.43094269E-09
  2 59 110  2.41493102E-09
  2 59 111  2.39630704E-09
  2 59 127  2.22846447E-09
  2 59 128  2.22854600E-09
  2 59 129  2.22864228E-09
  2 60 75  2.53104414E-09
  2 60 76  2.53210450E-09
  2 60 77  2.53571767E-09
  2 60 78  2.53942012E-09
  2 60 79  2.54288692E-09
  2 60 80  2.54692419E-09
  2 60 81  2.54973949E-09
  2 60 82  2.55288550E-09
  2 60 83  2.55825869E-09
  2 60 84  2.56333625E-09
  2 60 85  2.56854976E-09
  2 60 86  2.57271985E-09
  2 60 87  2.57779619E-09
  2 60 88  2.58113333E-09
  2 60 89  2.58370210E-09
  2 60 90  2.58543502E-09
  2 60 91  2.58629096E-09
  2 60 92  2.58736269E-09
  2 60 93  2.58727512E-09
  2 60 94  2.58470828E-09
  2 60 95  2.58115292E-09
  2 60 96  2.57676921E-09
  2 60 97  2.57167255E-09
  2 60 98  2.56602913E-09
  2 60 99  2.55996427E-09
  2 60 100  2.55339984E-09
  2 60 101  2.54651969E-09
  2 60 102  2.53953503E-09
  2 60 103  2.53019255E-09
  2 60 104  2.51617606E-09
  2 60 105  2.49535901E-09
  2 60 106  2.47471300E-09
  2 60 107  2.45564121E-09
  2 60 108  2.43686747E-09
  2 60 109  2.41783051E-09
  2 60 110  2.39612898E-09
  2 60 111  2.37503032E-09
  2 60 128  2.22836963E-09
  2 60 129  2.22846132E-09
  2 61 71  2.52283581E-09
  2 61 72  2.52372320E-09
  2 61 74  2.52787006E-09
  2 61 75  2.52935646E-09
  2 61 76  2.53071802E-09
  2 61 77  2.53245263E-09
  2 61 78  2.53449062E-09
  2 61 79  2.53671731E-09
  2 61 80  2.53943100E-09
  2 61 81  2.54253419E-09
  2 61 82  2.54597511E-09
  2 61 83  2.54967224E-09
  2 61 84  2.55304397E-09
  2 61 85  2.55656109E-09
  2 61 86  2.56011378E-09
  2 61 87  2.56355664E-09
  2 61 88  2.56659379E-09
  2 61 89  2.56896225E-09
  2 61 90  2.57066372E-09
  2 61 91  2.57165416E-09
  2 61 92  2.57180053E-09
  2 61 93  2.57096951E-09
  2 61 94  2.56933094E-09
  2 61 95  2.56686644E-09
  2 61 96  2.56374486E-09
  2 61 97  2.56005354E-09
  2 61 98  2.55588684E-09
  2 61 99  2.55118621E-09
  2 61 100  2.54588681E-09
  2 61 101  2.54007961E-09
  2 61 102  2.53394483E-09
  2 61 103  2.52277823E-09
  2 61 104  2.50662383E-09
  2 61 105  2.48558010E-09
  2 61 106  2.46457507E-09
  2 61 107  2.44380205E-09
  2 61 108  2.42323273E-09
  2 61 109  2.40232230E-09
  2 61 110  2.37901195E-09
  2 61 111  2.35651061E-09
  2 61 112  2.33114921E-09
  2 61 122  2.22777957E-09
  2 61 123  2.22787151E-09
  2 61 124  2.22795860E-09
  2 61 127  2.22811755E-09
  2 61 128  2.22817779E-09
  2 61 129  2.22825254E-09
  2 62 71  2.52338982E-09
  2 62 72  2.52427019E-09
  2 62 73  2.52512637E-09
  2 62 74  2.52594941E-09
  2 62 75  2.52328410E-09
  2 62 76  2.52448696E-09
  2 62 77  2.52581223E-09
  2 62 78  2.52742298E-09
  2 62 79  2.52927396E-09
  2 62 80  2.53142130E-09
  2 62 81  2.53382169E-09
  2 62 82  2.53648555E-09
  2 62 83  2.53928778E-09
  2 62 84  2.54215969E-09
  2 62 85  2.54506184E-09
  2 62 86  2.55035011E-09
  2 62 87  2.55314001E-09
  2 62 88  2.55565363E-09
  2 62 89  2.55759291E-09
  2 62 90  2.55899850E-09
  2 62 91  2.55982831E-09
  2 62 92  2.55999500E-09
  2 62 93  2.55946929E-09
  2 62 94  2.55832474E-09
  2 62 95  2.55659762E-09
  2 62 96  2.55433997E-09
  2 62 97  2.55160934E-09
  2 62 98  2.54841301E-09
  2 62 99  2.54461234E-09
  2 62 100  2.54010525E-09
  2 62 101  2.53496431E-09
  2 62 102  2.52932984E-09
  2 62 103  2.51602050E-09
  2 62 104  2.49744248E-09
  2 62 105  2.47598094E-09
  2 62 106  2.45445722E-09
  2 62 107  2.43301721E-09
  2 62 108  2.41098568E-09
  2 62 109  2.38875699E-09
  2 62 110  2.36454475E-09
  2 62 111  2.34147512E-09
  2 62 112  2.31631621E-09
  2 62 113  2.28766824E-09
  2 62 118  2.22856414E-09
  2 62 119  2.22764579E-09
  2 62 120  2.22767530E-09
  2 62 121  2.22770554E-09
  2 62 122  2.22776288E-09
  2 62 123  2.22782772E-09
  2 62 124  2.22788022E-09
  2 62 127  2.22799029E-09
  2 62 129  2.22808416E-09
  2 63 71  2.51388139E-09
  2 63 72  2.51621646E-09
  2 63 73  2.51804397E-09
  2 63 74  2.51956545E-09
  2 63 75  2.51761721E-09
  2 63 76  2.51620920E-09
  2 63 77  2.51781971E-09
  2 63 78  2.51943892E-09
  2 63 79  2.52318878E-09
  2 63 80  2.52495049E-09
  2 63 81  2.52845867E-09
  2 63 82  2.53058230E-09
  2 63 83  2.53277052E-09
  2 63 84  2.53498488E-09
  2 63 85  2.53717504E-09
  2 63 86  2.54172519E-09
  2 63 87  2.54622744E-09
  2 63 88  2.54815245E-09
  2 63 89  2.54968336E-09
  2 63 90  2.55078897E-09
  2 63 91  2.55143177E-09
  2 63 92  2.55156821E-09
  2 63 93  2.55117291E-09
  2 63 94  2.55030705E-09
  2 63 95  2.54898662E-09
  2 63 96  2.54724015E-09
  2 63 97  2.54510394E-09
  2 63 98  2.54248024E-09
  2 63 99  2.53920722E-09
  2 63 100  2.53516898E-09
  2 63 101  2.53042529E-09
  2 63 102  2.52507678E-09
  2 63 103  2.50946574E-09
  2 63 104  2.48838257E-09
  2 63 105  2.46661161E-09
  2 63 106  2.44438896E-09
  2 63 107  2.42213753E-09
  2 63 108  2.39923193E-09
  2 63 109  2.37584973E-09
  2 63 110  2.35378579E-09
  2 63 111  2.33054052E-09
  2 63 112  2.30588990E-09
  2 63 113  2.27891026E-09
  2 63 114  2.26423330E-09
  2 63 115  2.25298856E-09
  2 63 116  2.24199227E-09
  2 63 117  2.23374790E-09
  2 63 118  2.23022884E-09
  2 63 119  2.22877196E-09
  2 63 120  2.22830528E-09
  2 63 121  2.22798037E-09
  2 63 122  2.22782119E-09
  2 63 123  2.22778054E-09
  2 63 124  2.22778151E-09
  2 63 125  2.22778296E-09
  2 63 126  2.22779070E-09
  2 63 127  2.22780449E-09
  2 63 128  2.22782385E-09
  2 63 129  2.22784780E-09
  2 64 72  2.49233154E-09
  2 64 73  2.49721216E-09
  2 64 74  2.50101138E-09
  2 64 75  2.50091316E-09
  2 64 76  2.50097509E-09
  2 64 77  2.50328331E-09
  2 64 78  2.50782863E-09
  2 64 79  2.51410372E-09
  2 64 80  2.51803792E-09
  2 64 81  2.52367675E-09
  2 64 82  2.52710291E-09
  2 64 83  2.52895317E-09
  2 64 84  2.53078068E-09
  2 64 85  2.53252473E-09
  2 64 86  2.53660070E-09
  2 64 87  2.54057411E-09
  2 64 88  2.54199905E-09
  2 64 89  2.54315183E-09
  2 64 90  2.54400462E-09
  2 64 91  2.54452597E-09
  2 64 92  2.54464694E-09
  2 64 93  2.54435155E-09
  2 64 94  2.54369520E-09
  2 64 95  2.54268153E-09
  2 64 96  2.54132117E-09
  2 64 97  2.53963277E-09
  2 64 98  2.53742737E-09
  2 64 99  2.53451844E-09
  2 64 100  2.53080003E-09
  2 64 101  2.52630068E-09
  2 64 102  2.52108717E-09
  2 64 103  2.50548000E-09
  2 64 104  2.48425894E-09
  2 64 105  2.46221314E-09
  2 64 106  2.43935520E-09
  2 64 107  2.41648927E-09
  2 64 108  2.39301925E-09
  2 64 109  2.36933271E-09
  2 64 110  2.34726224E-09
  2 64 111  2.32440672E-09
  2 64 112  2.30069937E-09
  2 64 113  2.27553345E-09
  2 64 114  2.26227805E-09
  2 64 115  2.25260825E-09
  2 64 116  2.24363616E-09
  2 64 117  2.23538018E-09
  2 64 118  2.23148274E-09
  2 64 119  2.22966104E-09
  2 64 120  2.22886703E-09
  2 64 121  2.22830455E-09
  2 64 122  2.22797287E-09
  2 64 123  2.22784199E-09
  2 64 124  2.22779361E-09
  2 64 125  2.22777449E-09
  2 64 126  2.22776699E-09
  2 64 127  2.22776966E-09
  2 64 128  2.22777982E-09
  2 64 129  2.22779385E-09
  2 65 74  2.48078052E-09
  2 65 75  2.47941024E-09
  2 65 76  2.47848028E-09
  2 65 77  2.48191878E-09
  2 65 78  2.48676263E-09
  2 65 79  2.49317199E-09
  2 65 80  2.49732732E-09
  2 65 81  2.50283526E-09
  2 65 82  2.50611651E-09
  2 65 83  2.50779137E-09
  2 65 84  2.50940744E-09
  2 65 85  2.51089432E-09
  2 65 86  2.51711981E-09
  2 65 87  2.52322047E-09
  2 65 88  2.52435535E-09
  2 65 89  2.52772200E-09
  2 65 90  2.53089269E-09
  2 65 91  2.53384226E-09
  2 65 92  2.53645942E-09
  2 65 93  2.53873667E-09
  2 65 94  2.53832637E-09
  2 65 95  2.53760615E-09
  2 65 96  2.53657409E-09
  2 65 97  2.53523503E-09
  2 65 98  2.53331220E-09
  2 65 99  2.53062004E-09
  2 65 100  2.52707993E-09
  2 65 101  2.52270565E-09
  2 65 102  2.51753036E-09
  2 65 103  2.49943668E-09
  2 65 104  2.47802981E-09
  2 65 105  2.45570241E-09
  2 65 106  2.43248739E-09
  2 65 107  2.40880230E-09
  2 65 108  2.38458013E-09
  2 65 109  2.36296787E-09
  2 65 110  2.34082216E-09
  2 65 111  2.31825888E-09
  2 65 112  2.29529014E-09
  2 65 113  2.27153416E-09
  2 65 114  2.25937131E-09
  2 65 115  2.25083009E-09
  2 65 116  2.24322731E-09
  2 65 117  2.23654288E-09
  2 65 118  2.23240352E-09
  2 65 119  2.23033988E-09
  2 65 120  2.22931992E-09
  2 65 121  2.22858954E-09
  2 65 122  2.22813230E-09
  2 65 123  2.22791989E-09
  2 65 124  2.22782215E-09
  2 65 125  2.22778103E-09
  2 65 126  2.22775683E-09
  2 65 127  2.22774691E-09
  2 65 128  2.22774740E-09
  2 65 129  2.22775199E-09
  2 66 73  2.45170458E-09
  2 66 74  2.45625110E-09
  2 66 75  2.45391603E-09
  2 66 76  2.45222157E-09
  2 66 77  2.45422352E-09
  2 66 78  2.45890721E-09
  2 66 79  2.46554229E-09
  2 66 80  2.46950263E-09
  2 66 81  2.47516322E-09
  2 66 82  2.47842488E-09
  2 66 83  2.47765023E-09
  2 66 84  2.47679526E-09
  2 66 85  2.47820158E-09
  2 66 86  2.48436296E-09
  2 66 87  2.49038839E-09
  2 66 88  2.49389076E-09
  2 66 89  2.49971296E-09
  2 66 90  2.50543234E-09
  2 66 91  2.51101069E-09
  2 66 92  2.51629267E-09
  2 66 93  2.52127974E-09
  2 66 94  2.52362812E-09
  2 66 95  2.52568812E-09
  2 66 96  2.52744620E-09
  2 66 97  2.52889680E-09
  2 66 98  2.52967943E-09
  2 66 99  2.52718710E-09
  2 66 100  2.52379578E-09
  2 66 101  2.51950352E-09
  2 66 102  2.51189783E-09
  2 66 103  2.49367883E-09
  2 66 104  2.47207140E-09
  2 66 105  2.44950885E-09
  2 66 106  2.42601827E-09
  2 66 107  2.40156482E-09
  2 66 108  2.37671196E-09
  2 66 109  2.35469761E-09
  2 66 110  2.33251488E-09
  2 66 111  2.31026877E-09
  2 66 112  2.28802170E-09
  2 66 113  2.26819654E-09
  2 66 114  2.25702994E-09
  2 66 115  2.24945474E-09
  2 66 116  2.24291353E-09
  2 66 117  2.23736640E-09
  2 66 118  2.23310026E-09
  2 66 119  2.23087454E-09
  2 66 120  2.22969370E-09
  2 66 121  2.22884163E-09
  2 66 122  2.22829076E-09
  2 66 123  2.22800940E-09
  2 66 124  2.22786715E-09
  2 66 125  2.22780449E-09
  2 66 126  2.22776433E-09
  2 66 127  2.22774304E-09
  2 66 128  2.22773530E-09
  2 66 129  2.22773264E-09
  2 67 73  2.41353559E-09
  2 67 74  2.41822679E-09
  2 67 75  2.41608864E-09
  2 67 76  2.41434362E-09
  2 67 77  2.41863855E-09
  2 67 78  2.42350514E-09
  2 67 79  2.43008990E-09
  2 67 80  2.43422031E-09
  2 67 81  2.44252855E-09
  2 67 82  2.44587729E-09
  2 67 83  2.44517377E-09
  2 67 84  2.44439501E-09
  2 67 85  2.44587560E-09
  2 67 86  2.44971401E-09
  2 67 87  2.45602563E-09
  2 67 88  2.45966009E-09
  2 67 89  2.46811010E-09
  2 67 90  2.47655043E-09
  2 67 91  2.48492931E-09
  2 67 92  2.49307546E-09
  2 67 93  2.50096759E-09
  2 67 94  2.50625804E-09
  2 67 95  2.51124947E-09
  2 67 96  2.51592058E-09
  2 67 97  2.52023486E-09
  2 67 98  2.52378078E-09
  2 67 99  2.52395738E-09
  2 67 100  2.52076274E-09
  2 67 101  2.51658588E-09
  2 67 102  2.50657787E-09
  2 67 103  2.48825992E-09
  2 67 104  2.46647927E-09
  2 67 105  2.44371108E-09
  2 67 106  2.41999793E-09
  2 67 107  2.39533256E-09
  2 67 108  2.36975754E-09
  2 67 109  2.34728426E-09
  2 67 110  2.32498952E-09
  2 67 111  2.30296574E-09
  2 67 112  2.28130219E-09
  2 67 113  2.26488868E-09
  2 67 114  2.25449987E-09
  2 67 115  2.24765771E-09
  2 67 116  2.24188970E-09
  2 67 117  2.23722293E-09
  2 67 118  2.23371064E-09
  2 67 119  2.23137001E-09
  2 67 120  2.23004594E-09
  2 67 121  2.22908525E-09
  2 67 122  2.22845286E-09
  2 67 123  2.22810787E-09
  2 67 124  2.22791989E-09
  2 67 125  2.22783256E-09
  2 67 126  2.22777377E-09
  2 67 127  2.22773917E-09
  2 67 128  2.22772175E-09
  2 67 129  2.22771280E-09
  2 68 72  2.35592055E-09
  2 68 73  2.36685103E-09
  2 68 74  2.37487694E-09
  2 68 75  2.37591771E-09
  2 68 76  2.37589884E-09
  2 68 77  2.38213425E-09
  2 68 78  2.38861256E-09
  2 68 79  2.39409002E-09
  2 68 80  2.39873307E-09
  2 68 81  2.40309090E-09
  2 68 82  2.40916833E-09
  2 68 83  2.40875996E-09
  2 68 84  2.40829280E-09
  2 68 85  2.41011523E-09
  2 68 86  2.41434024E-09
  2 68 87  2.41866661E-09
  2 68 88  2.42276581E-09
  2 68 89  2.43176403E-09
  2 68 90  2.44326473E-09
  2 68 91  2.45479567E-09
  2 68 92  2.46618630E-09
  2 68 93  2.47718863E-09
  2 68 94  2.48563453E-09
  2 68 95  2.49376036E-09
  2 68 96  2.50151628E-09
  2 68 97  2.50881617E-09
  2 68 98  2.51523787E-09
  2 68 99  2.51819252E-09
  2 68 100  2.51770842E-09
  2 68 101  2.51131696E-09
  2 68 102  2.49896565E-09
  2 68 103  2.48059762E-09
  2 68 104  2.45868513E-09
  2 68 105  2.43574420E-09
  2 68 106  2.41183194E-09
  2 68 107  2.38700520E-09
  2 68 108  2.36142389E-09
  2 68 109  2.33840773E-09
  2 68 110  2.31590542E-09
  2 68 111  2.29399776E-09
  2 68 112  2.27520999E-09
  2 68 113  2.26213628E-09
  2 68 114  2.25250858E-09
  2 68 115  2.24631187E-09
  2 68 116  2.24113682E-09
  2 68 117  2.23701609E-09
  2 68 118  2.23396031E-09
  2 68 119  2.23191023E-09
  2 68 120  2.23043060E-09
  2 68 121  2.22935161E-09
  2 68 122  2.22863551E-09
  2 68 123  2.22822351E-09
  2 68 124  2.22799368E-09
  2 68 125  2.22787804E-09
  2 68 126  2.22779869E-09
  2 68 127  2.22774982E-09
  2 68 128  2.22772345E-09
  2 68 129  2.22770942E-09
  2 69 72  2.31882886E-09
  2 69 73  2.33241400E-09
  2 69 74  2.33977994E-09
  2 69 75  2.34283063E-09
  2 69 76  2.34120924E-09
  2 69 77  2.35049027E-09
  2 69 78  2.35604659E-09
  2 69 79  2.35996798E-09
  2 69 80  2.36272159E-09
  2 69 81  2.36512997E-09
  2 69 82  2.36744714E-09
  2 69 83  2.36724513E-09
  2 69 84  2.36701530E-09
  2 69 85  2.36916143E-09
  2 69 86  2.37379456E-09
  2 69 87  2.37863455E-09
  2 69 88  2.38334461E-09
  2 69 89  2.39305482E-09
  2 69 90  2.40537178E-09
  2 69 91  2.41780487E-09
  2 69 92  2.43260714E-09
  2 69 93  2.44449154E-09
  2 69 94  2.45385579E-09
  2 69 95  2.46286924E-09
  2 69 96  2.47141361E-09
  2 69 97  2.47935315E-09
  2 69 98  2.48870071E-09
  2 69 99  2.49449678E-09
  2 69 100  2.49435913E-09
  2 69 101  2.48821709E-09
  2 69 102  2.47601118E-09
  2 69 103  2.45768452E-09
  2 69 104  2.43814218E-09
  2 69 105  2.41751238E-09
  2 69 106  2.39590931E-09
  2 69 107  2.37347062E-09
  2 69 108  2.35046946E-09
  2 69 109  2.32526919E-09
  2 69 110  2.30301775E-09
  2 69 111  2.28382717E-09
  2 69 112  2.26780753E-09
  2 69 113  2.25753025E-09
  2 69 114  2.25071808E-09
  2 69 115  2.24494208E-09
  2 69 116  2.24018678E-09
  2 69 117  2.23645095E-09
  2 69 118  2.23370895E-09
  2 69 119  2.23183499E-09
  2 69 120  2.23046738E-09
  2 69 121  2.22945516E-09
  2 69 122  2.22875454E-09
  2 69 123  2.22832052E-09
  2 69 124  2.22806118E-09
  2 69 125  2.22792546E-09
  2 69 126  2.22782989E-09
  2 69 127  2.22776845E-09
  2 69 128  2.22773264E-09
  2 69 129  2.22771232E-09
  2 70 72  2.29246129E-09
  2 70 73  2.30368958E-09
  2 70 74  2.30923454E-09
  2 70 75  2.31083803E-09
  2 70 76  2.30748517E-09
  2 70 77  2.31553334E-09
  2 70 78  2.31972423E-09
  2 70 79  2.32164367E-09
  2 70 80  2.32206729E-09
  2 70 81  2.32474662E-09
  2 70 82  2.32757668E-09
  2 70 83  2.32749007E-09
  2 70 84  2.32987474E-09
  2 70 85  2.33478803E-09
  2 70 86  2.33991421E-09
  2 70 87  2.34539699E-09
  2 70 88  2.35328500E-09
  2 70 89  2.36144905E-09
  2 70 90  2.37228567E-09
  2 70 91  2.38328171E-09
  2 70 92  2.39670573E-09
  2 70 93  2.40707930E-09
  2 70 94  2.41736359E-09
  2 70 95  2.42727581E-09