BEGIN options
  SAVE_FLOWS
  SAVE_SPECIFIC_DISCHARGE
END options

BEGIN griddata
  icelltype
    CONSTANT  0
  k  LAYERED
    INTERNAL  FACTOR  1.0
      5.85000000E-05  5.85000000E-05  5.85000000E-05  5.85000000E-05  5.85000000E-05  5.85000000E-05  5.85000000E-05  5.85000000E-05  5.85000000E-05  5.85000000E-05  5.85000000E-05  5.85000000E-05  5.85000000E-05  5.85000000E-05  5.85000000E-05  5.85000000E-05  5.85000000E-05  5.85000000E-05  5.85000000E-05  5.85000000E-05
      5.85000000E-05  5.85000000E-05  5.85000000E-05  5.85000000E-05  5.85000000E-05  5.85000000E-05  5.85000000E-05  5.85000000E-05  5.85000000E-05  5.85000000E-05  5.85000000E-05  5.85000000E-05  5.85000000E-05  5.85000000E-05  5.85000000E-05  5.85000000E-05  5.85000000E-05  5.85000000E-05  5.85000000E-05  5.85000000E-05
      5.85000000E-05  5.85000000E-05  5.85000000E-05  5.85000000E-05  5.85000000E-05  5.85000000E-05  5.85000000E-05  5.85000000E-05  5.85000000E-05  5.85000000E-05  5.85000000E-05  5.85000000E-05  5.85000000E-05  5.85000000E-05  5.85000000E-05  5.85000000E-05  5.85000000E-05  5.85000000E-05  5.85000000E-05  5.85000000E-05
      5.85000000E-05  5.85000000E-05  5.85000000E-05  5.85000000E-05  5.85000000E-05  5.85000000E-05  5.85000000E-05  5.85000000E-05  5.85000000E-05  5.85000000E-05  5.85000000E-05  5.85000000E-05  5.85000000E-05  5.85000000E-05  5.85000000E-05  5.85000000E-05  5.85000000E-05  5.85000000E-05  5.85000000E-05  5.85000000E-05
      5.85000000E-05  5.85000000E-05  5.85000000E-05  5.85000000E-05  5.85000000E-05  5.85000000E-05  5.85000000E-05  5.85000000E-05  5.85000000E-05  5.85000000E-05  5.85000000E-05  5.85000000E-05  5.85000000E-05  5.85000000E-05  5.85000000E-05  5.85000000E-05  5.85000000E-05  5.85000000E-05  5.85000000E-05  5.85000000E-05
      5.85000000E-05  5.85000000E-05  5.85000000E-05  5.85000000E-05  5.85000000E-05  5.85000000E-05  5.85000000E-05  5.85000000E-05  5.85000000E-05  5.85000000E-05  5.85000000E-05  5.85000000E-05  5.85000000E-05  5.85000000E-05  5.85000000E-05  5.85000000E-05  5.85000000E-05  5.85000000E-05  5.85000000E-05  5.85000000E-05
      5.85000000E-05  5.85000000E-05  5.85000000E-05  5.85000000E-05  5.85000000E-05  5.85000000E-05  5.85000000E-05  5.85000000E-05  5.85000000E-05  5.85000000E-05  5.85000000E-05  5.85000000E-05  5.85000000E-05  5.85000000E-05  5.85000000E-05  5.85000000E-05  5.85000000E-05  5.85000000E-05  5.85000000E-05  5.85000000E-05
      5.85000000E-05  5.85000000E-05  5.85000000E-05  5.85000000E-05  5.85000000E-05  5.85000000E-05  5.85000000E-05  5.85000000E-05  5.85000000E-05  5.85000000E-05  5.85000000E-05  5.85000000E-05  5.85000000E-05  5.85000000E-05  5.85000000E-05  5.85000000E-05  5.85000000E-05  5.85000000E-05  5.85000000E-05  5.85000000E-05
      5.85000000E-05  5.85000000E-05  5.85000000E-05  5.85000000E-05  5.85000000E-05  5.85000000E-05  5.85000000E-05  5.85000000E-05  5.85000000E-05  5.85000000E-05  5.85000000E-05  5.85000000E-05  5.85000000E-05  5.85000000E-05  5.85000000E-05  5.85000000E-05  5.85000000E-05  5.85000000E-05  5.85000000E-05  5.85000000E-05
      5.85000000E-05  5.85000000E-05  5.85000000E-05
      5.85000000E-05  5.85000000E-05  5.85000000E-05  5.85000000E-05  5.85000000E-05  5.85000000E-05  5.85000000E-05  5.85000000E-05  5.85000000E-05  5.85000000E-05  5.85000000E-05  5.85000000E-05  5.85000000E-05  5.85000000E-05  5.85000000E-05  5.85000000E-05  5.85000000E-05  5.85000000E-05  5.85000000E-05  5.85000000E-05
      5.85000000E-05  5.85000000E-05  5.85000000E-05  5.85000000E-05  5.85000000E-05  5.85000000E-05  5.85000000E-05  5.85000000E-05  5.85000000E-05  5.85000000E-05  5.85000000E-05  5.85000000E-05  5.85000000E-05  5.85000000E-05  5.85000000E-05  5.85000000E-05  5.85000000E-05  5.85000000E-05  5.85000000E-05  5.85000000E-05
      5.85000000E-05  5.85000000E-05  5.85000000E-05  5.85000000E-05  5.85000000E-05  5.85000000E-05  5.85000000E-05  5.85000000E-05  5.85000000E-05  5.85000000E-05  5.85000000E-05  5.85000000E-05  5.85000000E-05  5.85000000E-05  5.85000000E-05  5.85000000E-05  5.85000000E-05  5.85000000E-05  5.85000000E-05  5.85000000E-05
      5.85000000E-05  5.85000000E-05  5.85000000E-05  5.85000000E-05  5.85000000E-05  5.85000000E-05  5.85000000E-05  5.85000000E-05  5.85000000E-05  5.85000000E-05  5.85000000E-05  5.85000000E-05  5.85000000E-05  5.85000000E-05  5.85000000E-05  5.85000000E-05  5.85000000E-05  5.85000000E-05  5.85000000E-05  5.85000000E-05
      5.85000000E-05  5.85000000E-05  5.85000000E-05  5.85000000E-05  5.85000000E-05  5.85000000E-05  5.85000000E-05  5.85000000E-05  5.85000000E-05  5.85000000E-05  5.85000000E-05  5.85000000E-05  5.85000000E-05  5.85000000E-05  5.85000000E-05  5.85000000E-05  5.85000000E-05  5.85000000E-05  5.85000000E-05  5.85000000E-05
      5.85000000E-05  5.85000000E-05  5.85000000E-05  5.85000000E-05  5.85000000E-05  5.85000000E-05  5.85000000E-05  5.85000000E-05  5.85000000E-05  5.85000000E-05  5.85000000E-05  5.85000000E-05  5.85000000E-05  5.85000000E-05  5.85000000E-05  5.85000000E-05  5.85000000E-05  5.85000000E-05  5.85000000E-05  5.85000000E-05
      5.85000000E-05  5.85000000E-05  5.85000000E-05  5.85000000E-05  5.85000000E-05  5.85000000E-05  5.85000000E-05  5.85000000E-05  5.85000000E-05  5.85000000E-05  5.85000000E-05  5.85000000E-05  5.85000000E-05  5.85000000E-05  5.85000000E-05  5.85000000E-05  5.85000000E-05  5.85000000E-05  5.85000000E-05  5.85000000E-05
      5.85000000E-05  5.85000000E-05  5.85000000E-05  5.85000000E-05  5.85000000E-05  5.85000000E-05  5.85000000E-05  5.85000000E-05  5.85000000E-05  5.85000000E-05  5.85000000E-05  5.85000000E-05  5.85000000E-05  5.85000000E-05  5.85000000E-05  5.85000000E-05  5.85000000E-05  5.85000000E-05  5.85000000E-05  5.85000000E-05
      5.85000000E-05  5.85000000E-05  5.85000000E-05  5.85000000E-05  5.85000000E-05  5.85000000E-05  5.85000000E-05  5.85000000E-05  5.85000000E-05  5.85000000E-05  5.85000000E-05  5.85000000E-05  5.85000000E-05  5.85000000E-05  5.85000000E-05  5.85000000E-05  5.85000000E-05  5.85000000E-05  5.85000000E-05  5.85000000E-05
      5.85000000E-05  5.85000000E-05  5.85000000E-05
      5.85000000E-05  5.85000000E-05  5.85000000E-05  5.85000000E-05  5.85000000E-05  5.85000000E-05  5.85000000E-05  5.85000000E-05  5.85000000E-05  5.85000000E-05  5.85000000E-05  5.85000000E-05  5.85000000E-05  5.85000000E-05  5.85000000E-05  5.85000000E-05  5.85000000E-05  5.85000000E-05  5.85000000E-05  5.85000000E-05
      5.85000000E-05  5.85000000E-05  5.85000000E-05  5.85000000E-05  5.85000000E-05  5.85000000E-05  5.85000000E-05  5.85000000E-05  5.85000000E-05  5.85000000E-05  5.85000000E-05  5.85000000E-05  5.85000000E-05  5.85000000E-05  5.85000000E-05  5.85000000E-05  5.85000000E-05  5.85000000E-05  5.85000000E-05  5.85000000E-05
      5.85000000E-05  5.85000000E-05  5.85000000E-05  5.85000000E-05  5.85000000E-05  5.85000000E-05  5.85000000E-05  5.85000000E-05  5.85000000E-05  5.85000000E-05  5.85000000E-05  5.85000000E-05  5.85000000E-05  5.85000000E-05  5.85000000E-05  5.85000000E-05  5.85000000E-05  5.85000000E-05  5.85000000E-05  5.85000000E-05
      5.85000000E-05  5.85000000E-05  5.85000000E-05  5.85000000E-05  5.85000000E-05  5.85000000E-05  5.85000000E-05  5.85000000E-05  5.85000000E-05  5.85000000E-05  5.85000000E-05  5.85000000E-05  5.85000000E-05  5.85000000E-05  5.85000000E-05  5.85000000E-05  5.85000000E-05  5.85000000E-05  5.85000000E-05  5.85000000E-05
      5.85000000E-05  5.85000000E-05  5.85000000E-05  5.85000000E-05  5.85000000E-05  5.85000000E-05  5.85000000E-05  5.85000000E-05  5.85000000E-05  5.85000000E-05  5.85000000E-05  5.85000000E-05  5.85000000E-05  5.85000000E-05  5.85000000E-05  5.85000000E-05  5.85000000E-05  5.85000000E-05  5.85000000E-05  5.85000000E-05
      5.85000000E-05  5.85000000E-05  5.85000000E-05  5.85000000E-05  5.85000000E-05  5.85000000E-05  5.85000000E-05  5.85000000E-05  5.85000000E-05  5.85000000E-05  5.85000000E-05  5.85000000E-05  5.85000000E-05  5.85000000E-05  5.85000000E-05  5.85000000E-05  5.85000000E-05  5.85000000E-05  5.85000000E-05  5.85000000E-05
      5.85000000E-05  5.85000000E-05  5.85000000E-05  5.85000000E-05  5.85000000E-05  5.85000000E-05  5.85000000E-05  5.85000000E-05  5.85000000E-05  5.85000000E-05  5.85000000E-05  5.85000000E-05  5.85000000E-05  5.85000000E-05  5.85000000E-05  5.85000000E-05  5.85000000E-05  5.85000000E-05  5.85000000E-05  5.85000000E-05
      5.85000000E-05  5.85000000E-05  5.85000000E-05  5.85000000E-05  5.85000000E-05  5.85000000E-05  5.85000000E-05  5.85000000E-05  5.85000000E-05  5.85000000E-05  5.85000000E-05  5.85000000E-05  5.85000000E-05  5.85000000E-05  5.85000000E-05  5.85000000E-05  5.85000000E-05  5.85000000E-05  5.85000000E-05  5.85000000E-05
      5.85000000E-05  5.85000000E-05  5.85000000E-05  5.85000000E-05  5.85000000E-05  5.85000000E-05  5.85000000E-05  5.85000000E-05  5.85000000E-05  5.85000000E-05  5.85000000E-05  5.85000000E-05  5.85000000E-05  5.85000000E-05  5.85000000E-05  5.85000000E-05  5.85000000E-05  5.85000000E-05  5.85000000E-05  5.85000000E-05
      5.85000000E-05  5.85000000E-05  5.85000000E-05
      5.85000000E-05  5.85000000E-05  5.85000000E-05  5.85000000E-05  5.85000000E-05  5.85000000E-05  5.85000000E-05  5.85000000E-05  5.85000000E-05  5.85000000E-05  5.85000000E-05  5.85000000E-05  5.85000000E-05  5.85000000E-05  5.85000000E-05  5.85000000E-05  5.85000000E-05  5.85000000E-05  5.85000000E-05  5.85000000E-05
      5.85000000E-05  5.85000000E-05  5.85000000E-05  5.85000000E-05  5.85000000E-05  5.85000000E-05  5.85000000E-05  5.85000000E-05  5.85000000E-05  5.85000000E-05  5.85000000E-05  5.85000000E-05  5.85000000E-05  5.85000000E-05  5.85000000E-05  5.85000000E-05  5.85000000E-05  5.85000000E-05  5.85000000E-05  5.85000000E-05
      5.85000000E-05  5.85000000E-05  5.85000000E-05  5.85000000E-05  5.85000000E-05  5.85000000E-05  5.85000000E-05  5.85000000E-05  5.85000000E-05  5.85000000E-05  5.85000000E-05  5.85000000E-05  5.85000000E-05  5.85000000E-05  5.85000000E-05  5.85000000E-05  5.85000000E-05  5.85000000E-05  5.85000000E-05  5.85000000E-05
      5.85000000E-05  5.85000000E-05  5.85000000E-05  5.85000000E-05  5.85000000E-05  5.85000000E-05  5.85000000E-05  5.85000000E-05  5.85000000E-05  5.85000000E-05  5.85000000E-05  5.85000000E-05  5.85000000E-05  5.85000000E-05  5.85000000E-05  5.85000000E-05  5.85000000E-05  5.85000000E-05  5.85000000E-05  5.85000000E-05
      5.85000000E-05  5.85000000E-05  5.85000000E-05  5.85000000E-05  5.85000000E-05  5.85000000E-05  5.85000000E-05  5.85000000E-05  5.85000000E-05  5.85000000E-05  5.85000000E-05  5.85000000E-05  5.85000000E-05  5.85000000E-05  5.85000000E-05  5.85000000E-05  5.85000000E-05  5.85000000E-05  5.85000000E-05  5.85000000E-05
      5.85000000E-05  5.85000000E-05  5.85000000E-05  5.85000000E-05  5.85000000E-05  5.85000000E-05  5.85000000E-05  5.85000000E-05  5.85000000E-05  5.85000000E-05  5.85000000E-05  5.85000000E-05  5.85000000E-05  5.85000000E-05  5.85000000E-05  5.85000000E-05  5.85000000E-05  5.85000000E-05  5.85000000E-05  5.85000000E-05
      5.85000000E-05  5.85000000E-05  5.85000000E-05  5.85000000E-05  5.85000000E-05  5.85000000E-05  5.85000000E-05  5.85000000E-05  5.85000000E-05  5.85000000E-05  5.85000000E-05  5.85000000E-05  5.85000000E-05  5.85000000E-05  5.85000000E-05  5.85000000E-05  5.85000000E-05  5.85000000E-05  5.85000000E-05  5.85000000E-05
      5.85000000E-05  5.85000000E-05  5.85000000E-05  5.85000000E-05  5.85000000E-05  5.85000000E-05  5.85000000E-05  5.85000000E-05  5.85000000E-05  5.85000000E-05  5.85000000E-05  5.85000000E-05  5.85000000E-05  5.85000000E-05  5.85000000E-05  5.85000000E-05  5.85000000E-05  5.85000000E-05  5.85000000E-05  5.85000000E-05
      5.85000000E-05  5.85000000E-05  5.85000000E-05  5.85000000E-05  5.85000000E-05  5.85000000E-05  5.85000000E-05  5.85000000E-05  5.85000000E-05  5.85000000E-05  5.85000000E-05  5.85000000E-05  5.85000000E-05  5.85000000E-05  5.85000000E-05  5.85000000E-05  5.85000000E-05  5.85000000E-05  5.85000000E-05  5.85000000E-05
      5.85000000E-05  5.85000000E-05  5.85000000E-05
      5.85000000E-05  5.85000000E-05  5.85000000E-05  5.85000000E-05  5.85000000E-05  5.85000000E-05  5.85000000E-05  5.85000000E-05  5.85000000E-05  5.85000000E-05  5.85000000E-05  5.85000000E-05  5.85000000E-05  5.85000000E-05  5.85000000E-05  5.85000000E-05  5.85000000E-05  5.85000000E-05  5.85000000E-05  5.85000000E-05
      5.85000000E-05  5.85000000E-05  5.85000000E-05  5.85000000E-05  5.85000000E-05  5.85000000E-05  5.85000000E-05  5.85000000E-05  5.85000000E-05  5.85000000E-05  5.85000000E-05  5.85000000E-05  5.85000000E-05  5.85000000E-05  5.85000000E-05  5.85000000E-05  5.85000000E-05  5.85000000E-05  5.85000000E-05  5.85000000E-05
      5.85000000E-05  5.85000000E-05  5.85000000E-05  5.85000000E-05  5.85000000E-05  5.85000000E-05  5.85000000E-05  5.85000000E-05  5.85000000E-05  5.85000000E-05  5.85000000E-05  5.85000000E-05  5.85000000E-05  5.85000000E-05  5.85000000E-05  5.85000000E-05  5.85000000E-05  5.85000000E-05  5.85000000E-05  5.85000000E-05
      5.85000000E-05  5.85000000E-05  5.85000000E-05  5.85000000E-05  5.85000000E-05  5.85000000E-05  5.85000000E-05  5.85000000E-05  5.85000000E-05  5.85000000E-05  5.85000000E-05  5.85000000E-05  5.85000000E-05  5.85000000E-05  5.85000000E-05  5.85000000E-05  5.85000000E-05  5.85000000E-05  5.85000000E-05  5.85000000E-05
      5.85000000E-05  5.85000000E-05  5.85000000E-05  5.85000000E-05  5.85000000E-05  5.85000000E-05  5.85000000E-05  5.85000000E-05  5.85000000E-05  5.85000000E-05  5.85000000E-05  5.85000000E-05  5.85000000E-05  5.85000000E-05  5.85000000E-05  5.85000000E-05  5.85000000E-05  5.85000000E-05  5.85000000E-05  5.85000000E-05
      5.85000000E-05  5.85000000E-05  5.85000000E-05  5.85000000E-05  5.85000000E-05  5.85000000E-05  5.85000000E-05  5.85000000E-05  5.85000000E-05  5.85000000E-05  5.85000000E-05  5.85000000E-05  5.85000000E-05  5.85000000E-05  5.85000000E-05  5.85000000E-05  5.85000000E-05  5.85000000E-05  5.85000000E-05  5.85000000E-05
      5.85000000E-05  5.85000000E-05  5.85000000E-05  5.85000000E-05  5.85000000E-05  5.85000000E-05  5.85000000E-05  5.85000000E-05  5.85000000E-05  5.85000000E-05  5.85000000E-05  5.85000000E-05  5.85000000E-05  5.85000000E-05  5.85000000E-05  5.85000000E-05  5.85000000E-05  5.85000000E-05  5.85000000E-05  5.85000000E-05
      5.85000000E-05  5.85000000E-05  5.85000000E-05  5.85000000E-05  5.85000000E-05  5.85000000E-05  5.85000000E-05  5.85000000E-05  5.85000000E-05  5.85000000E-05  5.85000000E-05  5.85000000E-05  5.85000000E-05  5.85000000E-05  5.85000000E-05  5.85000000E-05  5.85000000E-05  5.85000000E-05  5.85000000E-05  5.85000000E-05
      5.85000000E-05  5.85000000E-05  5.85000000E-05  5.85000000E-05  5.85000000E-05  5.85000000E-05  5.85000000E-05  5.85000000E-05  5.85000000E-05  5.85000000E-05  5.85000000E-05  5.85000000E-05  5.85000000E-05  5.85000000E-05  5.85000000E-05  5.85000000E-05  5.85000000E-05  5.85000000E-05  5.85000000E-05  5.85000000E-05
      5.85000000E-05  5.85000000E-05  5.85000000E-05
      5.85000000E-05  5.85000000E-05  5.85000000E-05  5.85000000E-05  5.85000000E-05  5.85000000E-05  5.85000000E-05  5.85000000E-05  5.85000000E-05  5.85000000E-05  5.85000000E-05  5.85000000E-05  5.85000000E-05  5.85000000E-05  5.85000000E-05  5.85000000E-05  5.85000000E-05  5.85000000E-05  5.85000000E-05  5.85000000E-05
      5.85000000E-05  5.85000000E-05  5.85000000E-05  5.85000000E-05  5.85000000E-05  5.85000000E-05  5.85000000E-05  5.85000000E-05  5.85000000E-05  5.85000000E-05  5.85000000E-05  5.85000000E-05  5.85000000E-05  5.85000000E-05  5.85000000E-05  5.85000000E-05  5.85000000E-05  5.85000000E-05  5.85000000E-05  5.85000000E-05
      5.85000000E-05  5.85000000E-05  5.85000000E-05  5.85000000E-05  5.85000000E-05  5.85000000E-05  5.85000000E-05  5.85000000E-05  5.85000000E-05  5.85000000E-05  5.85000000E-05  5.85000000E-05  5.85000000E-05  5.85000000E-05  5.85000000E-05  5.85000000E-05  5.85000000E-05  5.85000000E-05  5.85000000E-05  5.85000000E-05
      5.85000000E-05  5.85000000E-05  5.85000000E-05  5.85000000E-05  5.85000000E-05  5.85000000E-05  5.85000000E-05  5.85000000E-05  5.85000000E-05  5.85000000E-05  5.85000000E-05  5.85000000E-05  5.85000000E-05  5.85000000E-05  5.85000000E-05  5.85000000E-05  5.85000000E-05  5.85000000E-05  5.85000000E-05  5.85000000E-05
      5.85000000E-05  5.85000000E-05  5.85000000E-05  5.85000000E-05  5.85000000E-05  5.85000000E-05  5.85000000E-05  5.85000000E-05  5.85000000E-05  5.85000000E-05  5.85000000E-05  5.85000000E-05  5.85000000E-05  5.85000000E-05  5.85000000E-05  5.85000000E-05  5.85000000E-05  5.85000000E-05  5.85000000E-05  5.85000000E-05
      5.85000000E-05  5.85000000E-05  5.85000000E-05  5.85000000E-05  5.85000000E-05  5.85000000E-05  5.85000000E-05  5.85000000E-05  5.85000000E-05  5.85000000E-05  5.85000000E-05  5.85000000E-05  5.85000000E-05  5.85000000E-05  5.85000000E-05  5.85000000E-05  5.85000000E-05  5.85000000E-05  5.85000000E-05  5.85000000E-05
      5.85000000E-05  5.85000000E-05  5.85000000E-05  5.85000000E-05  5.85000000E-05  5.85000000E-05  5.85000000E-05  5.85000000E-05  5.85000000E-05  5.85000000E-05  5.85000000E-05  5.85000000E-05  5.85000000E-05  5.85000000E-05  5.85000000E-05  5.85000000E-05  5.85000000E-05  5.85000000E-05  5.85000000E-05  5.85000000E-05
      5.85000000E-05  5.85000000E-05  5.85000000E-05  5.85000000E-05  5.85000000E-05  5.85000000E-05  5.85000000E-05  5.85000000E-05  5.85000000E-05  5.85000000E-05  5.85000000E-05  5.85000000E-05  5.85000000E-05  5.85000000E-05  5.85000000E-05  5.85000000E-05  5.85000000E-05  5.85000000E-05  5.85000000E-05  5.85000000E-05
      5.85000000E-05  5.85000000E-05  5.85000000E-05  5.85000000E-05  5.85000000E-05  5.85000000E-05  5.85000000E-05  5.85000000E-05  5.85000000E-05  5.85000000E-05  5.85000000E-05  5.85000000E-05  5.85000000E-05  5.85000000E-05  5.85000000E-05  5.85000000E-05  5.85000000E-05  5.85000000E-05  5.85000000E-05  5.85000000E-05
      5.85000000E-05  5.85000000E-05  5.85000000E-05
      5.85000000E-05  5.85000000E-05  5.85000000E-05  5.85000000E-05  5.85000000E-05  5.85000000E-05  5.85000000E-05  5.85000000E-05  5.85000000E-05  5.85000000E-05  5.85000000E-05  5.85000000E-05  5.85000000E-05  5.85000000E-05  5.85000000E-05  5.85000000E-05  5.85000000E-05  5.85000000E-05  5.85000000E-05  5.85000000E-05
      5.85000000E-05  5.85000000E-05  5.85000000E-05  5.85000000E-05  5.85000000E-05  5.85000000E-05  5.85000000E-05  5.85000000E-05  5.85000000E-05  5.85000000E-05  5.85000000E-05  5.85000000E-05  5.85000000E-05  5.85000000E-05  5.85000000E-05  5.85000000E-05  5.85000000E-05  5.85000000E-05  5.85000000E-05  5.85000000E-05
      5.85000000E-05  5.85000000E-05  5.85000000E-05  5.85000000E-05  5.85000000E-05  5.85000000E-05  5.85000000E-05  5.85000000E-05  5.85000000E-05  5.85000000E-05  5.85000000E-05  5.85000000E-05  5.85000000E-05  5.85000000E-05  5.85000000E-05  5.85000000E-05  5.85000000E-05  5.85000000E-05  5.85000000E-05  5.85000000E-05
      5.85000000E-05  5.85000000E-05  5.85000000E-05  5.85000000E-05  5.85000000E-05  5.85000000E-05  5.85000000E-05  5.85000000E-05  5.85000000E-05  5.85000000E-05  5.85000000E-05  5.85000000E-05  5.85000000E-05  5.85000000E-05  5.85000000E-05  5.85000000E-05  5.85000000E-05  5.85000000E-05  5.85000000E-05  5.85000000E-05
      5.85000000E-05  5.85000000E-05  5.85000000E-05  5.85000000E-05  5.85000000E-05  5.85000000E-05  5.85000000E-05  5.85000000E-05  5.85000000E-05  5.85000000E-05  5.85000000E-05  5.85000000E-05  5.85000000E-05  5.85000000E-05  5.85000000E-05  5.85000000E-05  5.85000000E-05  5.85000000E-05  5.85000000E-05  5.85000000E-05
      5.85000000E-05  5.85000000E-05  5.85000000E-05  5.85000000E-05  5.85000000E-05  5.85000000E-05  5.85000000E-05  5.85000000E-05  5.85000000E-05  5.85000000E-05  5.85000000E-05  5.85000000E-05  5.85000000E-05  5.85000000E-05  5.85000000E-05  5.85000000E-05  5.85000000E-05  5.85000000E-05  5.85000000E-05  5.85000000E-05
      5.85000000E-05  5.85000000E-05  5.85000000E-05  5.85000000E-05  5.85000000E-05  5.85000000E-05  5.85000000E-05  5.85000000E-05  5.85000000E-05  5.85000000E-05  5.85000000E-05  5.85000000E-05  5.85000000E-05  5.85000000E-05  5.85000000E-05  5.85000000E-05  5.85000000E-05  5.85000000E-05  5.85000000E-05  5.85000000E-05
      5.85000000E-05  5.85000000E-05  5.85000000E-05  5.85000000E-05  5.85000000E-05  5.85000000E-05  5.85000000E-05  5.85000000E-05  5.85000000E-05  5.85000000E-05  5.85000000E-05  5.85000000E-05  5.85000000E-05  5.85000000E-05  5.85000000E-05  5.85000000E-05  5.85000000E-05  5.85000000E-05  5.85000000E-05  5.85000000E-05
      5.85000000E-05  5.85000000E-05  5.85000000E-05  5.85000000E-05  5.85000000E-05  5.85000000E-05  5.85000000E-05  5.85000000E-05  5.85000000E-05  5.85000000E-05  5.85000000E-05  5.85000000E-05  5.85000000E-05  5.85000000E-05  5.85000000E-05  5.85000000E-05  5.85000000E-05  5.85000000E-05  5.85000000E-05  5.85000000E-05
      5.85000000E-05  5.85000000E-05  5.85000000E-05
      5.85000000E-05  5.85000000E-05  5.85000000E-05  5.85000000E-05  5.85000000E-05  5.85000000E-05  5.85000000E-05  5.85000000E-05  5.85000000E-05  5.85000000E-05  5.85000000E-05  5.85000000E-05  5.85000000E-05  5.85000000E-05  5.85000000E-05  5.85000000E-05  5.85000000E-05  5.85000000E-05  5.85000000E-05  5.85000000E-05
      5.85000000E-05  5.85000000E-05  5.85000000E-05  5.85000000E-05  5.85000000E-05  5.85000000E-05  5.85000000E-05  5.85000000E-05  5.85000000E-05  5.85000000E-05  5.85000000E-05  5.85000000E-05  5.85000000E-05  5.85000000E-05  5.85000000E-05  5.85000000E-05  5.85000000E-05  5.85000000E-05  5.85000000E-05  5.85000000E-05
      5.85000000E-05  5.85000000E-05  5.85000000E-05  5.85000000E-05  5.85000000E-05  5.85000000E-05  5.85000000E-05  5.85000000E-05  5.85000000E-05  5.85000000E-05  5.85000000E-05  5.85000000E-05  5.85000000E-05  5.85000000E-05  5.85000000E-05  5.85000000E-05  5.85000000E-05  5.85000000E-05  5.85000000E-05  5.85000000E-05
      5.85000000E-05  5.85000000E-05  5.85000000E-05  5.85000000E-05  5.85000000E-05  5.85000000E-05  5.85000000E-05  5.85000000E-05  5.85000000E-05  5.85000000E-05  5.85000000E-05  5.85000000E-05  5.85000000E-05  5.85000000E-05  5.85000000E-05  5.85000000E-05  5.85000000E-05  5.85000000E-05  5.85000000E-05  5.85000000E-05
      5.85000000E-05  5.85000000E-05  5.85000000E-05  5.85000000E-05  5.85000000E-05  5.85000000E-05  5.85000000E-05  5.85000000E-05  5.85000000E-05  5.85000000E-05  5.85000000E-05  5.85000000E-05  5.85000000E-05  5.85000000E-05  5.85000000E-05  5.85000000E-05  5.85000000E-05  5.85000000E-05  5.85000000E-05  5.85000000E-05
      5.85000000E-05  5.85000000E-05  5.85000000E-05  5.85000000E-05  5.85000000E-05  5.85000000E-05  5.85000000E-05  5.85000000E-05  5.85000000E-05  5.85000000E-05  5.85000000E-05  5.85000000E-05  5.85000000E-05  5.85000000E-05  5.85000000E-05  5.85000000E-05  5.85000000E-05  5.85000000E-05  5.85000000E-05  5.85000000E-05
      5.85000000E-05  5.85000000E-05  5.85000000E-05  5.85000000E-05  5.85000000E-05  5.85000000E-05  5.85000000E-05  5.85000000E-05  5.85000000E-05  5.85000000E-05  5.85000000E-05  5.85000000E-05  5.85000000E-05  5.85000000E-05  5.85000000E-05  5.85000000E-05  5.85000000E-05  5.85000000E-05  5.85000000E-05  5.85000000E-05
      5.85000000E-05  5.85000000E-05  5.85000000E-05  5.85000000E-05  5.85000000E-05  5.85000000E-05  5.85000000E-05  5.85000000E-05  5.85000000E-05  5.85000000E-05  5.85000000E-05  5.85000000E-05  5.85000000E-05  5.85000000E-05  5.85000000E-05  5.85000000E-05  5.85000000E-05  5.85000000E-05  5.85000000E-05  5.85000000E-05
      5.85000000E-05  5.85000000E-05  5.85000000E-05  5.85000000E-05  5.85000000E-05  5.85000000E-05  5.85000000E-05  5.85000000E-05  5.85000000E-05  5.85000000E-05  5.85000000E-05  5.85000000E-05  5.85000000E-05  5.85000000E-05  5.85000000E-05  5.85000000E-05  5.85000000E-05  5.85000000E-05  5.85000000E-05  5.85000000E-05
      5.85000000E-05  5.85000000E-05  5.85000000E-05
      5.85000000E-05  5.85000000E-05  5.85000000E-05  5.85000000E-05  5.85000000E-05  5.85000000E-05  5.85000000E-05  5.85000000E-05  5.85000000E-05  5.85000000E-05  5.85000000E-05  5.85000000E-05  5.85000000E-05  5.85000000E-05  5.85000000E-05  5.85000000E-05  5.85000000E-05  5.85000000E-05  5.85000000E-05  5.85000000E-05
      5.85000000E-05  5.85000000E-05  5.85000000E-05  5.85000000E-05  5.85000000E-05  5.85000000E-05  5.85000000E-05  5.85000000E-05  5.85000000E-05  5.85000000E-05  5.85000000E-05  5.85000000E-05  5.85000000E-05  5.85000000E-05  5.85000000E-05  5.85000000E-05  5.85000000E-05  5.85000000E-05  5.85000000E-05  5.85000000E-05
      5.85000000E-05  5.85000000E-05  5.85000000E-05  5.85000000E-05  5.85000000E-05  5.85000000E-05  5.85000000E-05  5.85000000E-05  5.85000000E-05  5.85000000E-05  5.85000000E-05  5.85000000E-05  5.85000000E-05  5.85000000E-05  5.85000000E-05  5.85000000E-05  5.85000000E-05  5.85000000E-05  5.85000000E-05  5.85000000E-05
      5.85000000E-05  5.85000000E-05  5.85000000E-05  5.85000000E-05  5.85000000E-05  5.85000000E-05  5.85000000E-05  5.85000000E-05  5.85000000E-05  5.85000000E-05  5.85000000E-05  5.85000000E-05  5.85000000E-05  5.85000000E-05  5.85000000E-05  5.85000000E-05  5.85000000E-05  5.85000000E-05  5.85000000E-05  5.85000000E-05
      5.85000000E-05  5.85000000E-05  5.85000000E-05  5.85000000E-05  5.85000000E-05  5.85000000E-05  5.85000000E-05  5.85000000E-05  5.85000000E-05  5.85000000E-05  5.85000000E-05  5.85000000E-05  5.85000000E-05  5.85000000E-05  5.85000000E-05  5.85000000E-05  5.85000000E-05  5.85000000E-05  5.85000000E-05  5.85000000E-05
      5.85000000E-05  5.85000000E-05  5.85000000E-05  5.85000000E-05  5.85000000E-05  5.85000000E-05  5.85000000E-05  5.85000000E-05  5.85000000E-05  5.85000000E-05  5.85000000E-05  5.85000000E-05  5.85000000E-05  5.85000000E-05  5.85000000E-05  5.85000000E-05  5.85000000E-05  5.85000000E-05  5.85000000E-05  5.85000000E-05
      5.85000000E-05  5.85000000E-05  5.85000000E-05  5.85000000E-05  5.85000000E-05  5.85000000E-05  5.85000000E-05  5.85000000E-05  5.85000000E-05  5.85000000E-05  5.85000000E-05  5.85000000E-05  5.85000000E-05  5.85000000E-05  5.85000000E-05  5.85000000E-05  5.85000000E-05  5.85000000E-05  5.85000000E-05  5.85000000E-05
      5.85000000E-05  5.85000000E-05  5.85000000E-05  5.85000000E-05  5.85000000E-05  5.85000000E-05  5.85000000E-05  5.85000000E-05  5.85000000E-05  5.85000000E-05  5.85000000E-05  5.85000000E-05  5.85000000E-05  5.85000000E-05  5.85000000E-05  5.85000000E-05  5.85000000E-05  5.85000000E-05  5.85000000E-05  5.85000000E-05
      5.85000000E-05  5.85000000E-05  5.85000000E-05  5.85000000E-05  5.85000000E-05  5.85000000E-05  5.85000000E-05  5.85000000E-05  5.85000000E-05  5.85000000E-05  5.85000000E-05  5.85000000E-05  5.85000000E-05  5.85000000E-05  5.85000000E-05  5.85000000E-05  5.85000000E-05  5.85000000E-05  5.85000000E-05  5.85000000E-05
      5.85000000E-05  5.85000000E-05  5.85000000E-05
      5.85000000E-05  5.85000000E-05  5.85000000E-05  5.85000000E-05  5.85000000E-05  5.85000000E-05  5.85000000E-05  5.85000000E-05  5.85000000E-05  5.85000000E-05  5.85000000E-05  5.85000000E-05  5.85000000E-05  5.85000000E-05  5.85000000E-05  5.85000000E-05  5.85000000E-05  5.85000000E-05  5.85000000E-05  5.85000000E-05
      5.85000000E-05  5.85000000E-05  5.85000000E-05  5.85000000E-05  5.85000000E-05  5.85000000E-05  5.85000000E-05  5.85000000E-05  5.85000000E-05  5.85000000E-05  5.85000000E-05  5.85000000E-05  5.85000000E-05  5.85000000E-05  5.85000000E-05  5.85000000E-05  5.85000000E-05  5.85000000E-05  5.85000000E-05  5.85000000E-05
      5.85000000E-05  5.85000000E-05  5.85000000E-05  5.85000000E-05  5.85000000E-05  5.85000000E-05  5.85000000E-05  5.85000000E-05  5.85000000E-05  5.85000000E-05  5.85000000E-05  5.85000000E-05  5.85000000E-05  5.85000000E-05  5.85000000E-05  5.85000000E-05  5.85000000E-05  5.85000000E-05  5.85000000E-05  5.85000000E-05
      5.85000000E-05  5.85000000E-05  5.85000000E-05  5.85000000E-05  5.85000000E-05  5.85000000E-05  5.85000000E-05  5.85000000E-05  5.85000000E-05  5.85000000E-05  5.85000000E-05  5.85000000E-05  5.85000000E-05  5.85000000E-05  5.85000000E-05  5.85000000E-05  5.85000000E-05  5.85000000E-05  5.85000000E-05  5.85000000E-05
      5.85000000E-05  5.85000000E-05  5.85000000E-05  5.85000000E-05  5.85000000E-05  5.85000000E-05  5.85000000E-05  5.85000000E-05  5.85000000E-05  5.85000000E-05  5.85000000E-05  5.85000000E-05  5.85000000E-05  5.85000000E-05  5.85000000E-05  5.85000000E-05  5.85000000E-05  5.85000000E-05  5.85000000E-05  5.85000000E-05
      5.85000000E-05  5.85000000E-05  5.85000000E-05  5.85000000E-05  5.85000000E-05  5.85000000E-05  5.85000000E-05  5.85000000E-05  5.85000000E-05  5.85000000E-05  5.85000000E-05  5.85000000E-05  5.85000000E-05  5.85000000E-05  5.85000000E-05  5.85000000E-05  5.85000000E-05  5.85000000E-05  5.85000000E-05  5.85000000E-05
      5.85000000E-05  5.85000000E-05  5.85000000E-05  5.85000000E-05  5.85000000E-05  5.85000000E-05  5.85000000E-05  5.85000000E-05  5.85000000E-05  5.85000000E-05  5.85000000E-05  5.85000000E-05  5.85000000E-05  5.85000000E-05  5.85000000E-05  5.85000000E-05  5.85000000E-05  5.85000000E-05  5.85000000E-05  5.85000000E-05
      5.85000000E-05  5.85000000E-05  5.85000000E-05  5.85000000E-05  5.85000000E-05  5.85000000E-05  5.85000000E-05  5.85000000E-05  5.85000000E-05  5.85000000E-05  5.85000000E-05  5.85000000E-05  5.85000000E-05  5.85000000E-05  5.85000000E-05  5.85000000E-05  5.85000000E-05  5.85000000E-05  5.85000000E-05  5.85000000E-05
      5.85000000E-05  5.85000000E-05  5.85000000E-05  5.85000000E-05  5.85000000E-05  5.85000000E-05  5.85000000E-05  5.85000000E-05  5.85000000E-05  5.85000000E-05  5.85000000E-05  5.85000000E-05  5.85000000E-05  5.85000000E-05  5.85000000E-05  5.85000000E-05  5.85000000E-05  5.85000000E-05  5.85000000E-05  5.85000000E-05
      5.85000000E-05  5.85000000E-05  5.85000000E-05