BEGIN options
  SAVE_FLOWS
END options

BEGIN dimensions
  MAXBOUND  291
END dimensions

BEGIN period  1
  4 46 129      -0.00611988
  5 46 129      -0.00611988
  4 46 129      -0.00583501
  5 46 129      -0.00583501
  4 122 113      -0.00569013
  5 122 113      -0.00569013
  4 134 88      -0.00493253
  5 134 88      -0.00493253
  4 134 86      -0.00167645
  5 134 86      -0.00167645
  4 100 70      -0.00456117
  5 100 70      -0.00456117
  4 87 99      -0.00638352
  5 87 99      -0.00638352
  4 106 103      -0.01081743
  5 106 103      -0.01081743
  4 103 101      -0.00811204
  5 103 101      -0.00811204
  4 97 120      -0.00503619
  5 97 120      -0.00503619
  4 96 121      -0.00244673
  5 96 121      -0.00244673
  4 105 127      -0.00448272
  5 105 127      -0.00448272
  4 98 125      -0.00628784
  5 98 125      -0.00628784
  4 104 118      -0.00701419
  5 104 118      -0.00701419
  4 96 119      -0.00496834
  5 96 119      -0.00496834
  4 118 74  -1.30707763E-05
  5 118 74  -1.30707763E-05
  4 114 73      -0.00670557
  5 114 73      -0.00670557
  4 99 44      -0.00244380
  5 99 44      -0.00244380
  4 127 105      -0.00263389
  5 127 105      -0.00263389
  4 139 112      -0.00170150
  5 139 112      -0.00170150
  4 140 107      -0.01024933
  5 140 107      -0.01024933
  4 136 100      -0.00473607
  5 136 100      -0.00473607
  4 72 73      -0.00532424
  5 72 73      -0.00532424
  4 143 57      -0.00671689
  5 143 57      -0.00671689
  4 138 118      -0.00647612
  5 138 118      -0.00647612
  4 137 121      -0.00740755
  5 137 121      -0.00740755
  4 101 35      -0.00833624
  5 101 35      -0.00833624
  4 103 30      -0.01296944
  5 103 30      -0.01296944
  4 133 102      -0.00727277
  5 133 102      -0.00727277
  4 135 98      -0.00545615
  5 135 98      -0.00545615
  4 134 97      -0.00497097
  5 134 97      -0.00497097
  4 132 95      -0.00439924
  5 132 95      -0.00439924
  4 129 95      -0.00437492
  5 129 95      -0.00437492
  4 103 27      -0.00212207
  5 103 27      -0.00212207
  4 101 81      -0.00540698
  5 101 81      -0.00540698
  4 99 92  -2.20700152E-06
  5 99 92  -2.20700152E-06
  4 94 89      -0.00215213
  5 94 89      -0.00215213
  4 107 92      -0.00730947
  5 107 92      -0.00730947
  4 91 88      -0.00339053
  5 91 88      -0.00339053
  4 80 78      -0.00192197
  5 80 78      -0.00192197
  4 102 60  -3.03995434E-04
  5 102 60  -3.03995434E-04
  4 96 63      -0.00660826
  5 96 63      -0.00660826
  4 101 55      -0.00536214
  5 101 55      -0.00536214
  4 88 94  -4.42009132E-04
  5 88 94  -4.42009132E-04
  4 87 94      -0.00162660
  5 87 94      -0.00162660
  4 80 92      -0.01013135
  5 80 92      -0.01013135
  4 123 82      -0.00372190
  5 123 82      -0.00372190
  4 121 86      -0.00244279
  5 121 86      -0.00244279
  4 127 69      -0.00682062
  5 127 69      -0.00682062
  4 77 86      -0.01007036
  5 77 86      -0.01007036
  4 70 83      -0.00522412
  5 70 83      -0.00522412
  4 78 83      -0.00536929
  5 78 83      -0.00536929
  4 72 93      -0.00153813
  5 72 93      -0.00153813
  4 130 117      -0.00270173
  5 130 117      -0.00270173
  4 95 73      -0.00653040
  5 95 73      -0.00653040
  4 95 76      -0.00605000
  5 95 76      -0.00605000
  4 98 82      -0.01402955
  5 98 82      -0.01402955
  4 93 72      -0.00543246
  5 93 72      -0.00543246
  4 103 41      -0.00122922
  5 103 41      -0.00122922
  4 103 41      -0.01638392
  5 103 41      -0.01638392
  4 105 40      -0.01354163
  5 105 40      -0.01354163
  4 103 43      -0.02578763
  5 103 43      -0.02578763
  4 108 47      -0.00217589
  5 108 47      -0.00217589
  4 68 110      -0.00317458
  5 68 110      -0.00317458
  4 67 111      -0.00259886
  5 67 111      -0.00259886
  4 64 116      -0.00882363
  5 64 116      -0.00882363
  4 64 116      -0.00450913
  5 64 116      -0.00450913
  4 71 109      -0.00271412
  5 71 109      -0.00271412
  4 67 111      -0.00667700
  5 67 111      -0.00667700
  4 70 109      -0.00384912
  5 70 109      -0.00384912
  4 73 114      -0.00965892
  5 73 114      -0.00965892
  4 73 115      -0.00253278
  5 73 115      -0.00253278
  4 67 117      -0.00562373
  5 67 117      -0.00562373
  4 70 119      -0.00359703
  5 70 119      -0.00359703
  4 66 121      -0.00511946
  5 66 121      -0.00511946
  4 68 118      -0.00266166
  5 68 118      -0.00266166
  4 90 122      -0.00259937
  5 90 122      -0.00259937
  4 88 124      -0.01095668
  5 88 124      -0.01095668
  4 85 127      -0.00529102
  5 85 127      -0.00529102
  4 110 116      -0.00467607
  5 110 116      -0.00467607
  4 109 115      -0.00548255
  5 109 115      -0.00548255
  4 114 103      -0.00399414
  5 114 103      -0.00399414
  4 114 102      -0.00474353
  5 114 102      -0.00474353
  4 50 97      -0.00412871
  5 50 97      -0.00412871
  4 51 97  -9.25608828E-05
  5 51 97  -9.25608828E-05
  4 105 66      -0.00877456
  5 105 66      -0.00877456
  4 136 55  -6.01712329E-04
  5 136 55  -6.01712329E-04
  4 135 53      -0.00700234
  5 135 53      -0.00700234
  4 122 106      -0.00173653
  5 122 106      -0.00173653
  4 120 49      -0.00608539
  5 120 49      -0.00608539
  4 124 51      -0.01183624
  5 124 51      -0.01183624
  4 78 118      -0.00297247
  5 78 118      -0.00297247
  4 78 121      -0.00286535
  5 78 121      -0.00286535
  4 78 118      -0.00297177
  5 78 118      -0.00297177
  4 113 74      -0.01421317
  5 113 74      -0.01421317
  4 132 63      -0.00406206
  5 132 63      -0.00406206
  4 89 115      -0.00147479
  5 89 115      -0.00147479
  4 89 116      -0.00176882
  5 89 116      -0.00176882
  4 123 95      -0.00650957
  5 123 95      -0.00650957
  4 103 65      -0.00230072
  5 103 65      -0.00230072
  4 132 86  -5.58219178E-04
  5 132 86  -5.58219178E-04
  4 106 102  -7.21442161E-04
  5 106 102  -7.21442161E-04
  4 59 94  -1.29718417E-04
  5 59 94  -1.29718417E-04
  4 123 52  -6.37290715E-04
  5 123 52  -6.37290715E-04
  4 111 72  -7.01522070E-04
  5 111 72  -7.01522070E-04
  4 105 82  -1.04718417E-04
  5 105 82  -1.04718417E-04
  4 70 84  -9.03120244E-04
  5 70 84  -9.03120244E-04
  4 82 120      -0.00231488
  5 82 120      -0.00231488
  4 135 112  -8.06601979E-04
  5 135 112  -8.06601979E-04
  4 65 93  -4.55441400E-04
  5 65 93  -4.55441400E-04
  5 152 93  -4.25799087E-04
  4 99 82  -2.56449772E-04
  5 99 82  -2.56449772E-04
  4 59 100  -2.89193303E-04
  5 59 100  -2.89193303E-04
  2 142 114      -0.02059304
  2 155 85      -0.00455597
  2 87 99      -0.02222938
  2 116 7      -0.01109973
  2 166 69      -0.02477017
  2 152 91      -0.00672549
  2 150 92      -0.00441031
  2 152 91      -0.01055145
  2 152 92      -0.01782922
  2 140 107      -0.00442511
  2 138 110      -0.02486488
  2 137 121      -0.06360822
  2 103 30      -0.08206199
  2 104 26  -9.44444444E-05
  2 129 117      -0.01094072
  2 129 117      -0.00282793
  2 129 117      -0.00751027
  2 129 117      -0.01134182
  2 129 117      -0.01204387
  2 109 42      -0.13920993
  2 104 43      -0.00487234
  2 105 40      -0.01827272
  2 149 99      -0.01327557
  2 120 49      -0.00947211
  2 171 62      -0.00948615
  2 95 127  -2.95015221E-04
  2 95 127  -2.46841705E-04
  2 161 85      -0.00210717
  5 161 85      -0.00210717
  2 94 105  -4.25266362E-04
  4 94 105  -4.25266362E-04
  5 94 105  -4.25266362E-04
  2 92 100  -6.31912735E-05
  4 92 100  -6.31912735E-05
  5 92 100  -6.31912735E-05
  2 116 7  -4.10578387E-04
  4 116 7  -4.10578387E-04
  5 116 7  -4.10578387E-04
  2 160 75  -2.35045662E-04
  5 160 75  -2.35045662E-04
  4 134 113  -3.89802131E-04
  5 134 113  -3.89802131E-04
  2 100 25  -5.58726535E-05
  4 100 25  -5.58726535E-05
  5 100 25  -5.58726535E-05
  2 87 93  -5.91958397E-05
  4 87 93  -5.91958397E-05
  5 87 93  -5.91958397E-05
  2 105 82  -2.41501776E-05
  4 105 82  -2.41501776E-05
  5 105 82  -2.41501776E-05
  2 90 122  -1.54008118E-04
  4 90 122  -1.54008118E-04
  5 90 122  -1.54008118E-04
  2 145 122  -1.42059868E-04
  4 145 122  -1.42059868E-04
  5 145 122  -1.42059868E-04
  2 155 122  -1.17782851E-04
  4 155 122  -1.17782851E-04
  5 155 122  -1.17782851E-04
  2 141 123  -2.79046169E-05
  4 141 123  -2.79046169E-05
  5 141 123  -2.79046169E-05
  2 69 81  -2.22856418E-05
  4 69 81  -2.22856418E-05
  5 69 81  -2.22856418E-05
END period  1

