BEGIN options
  SAVE_FLOWS
END options

BEGIN dimensions
  MAXBOUND  1762
END dimensions

BEGIN period  1
  2 69 72  3.55149664E-10
  2 69 73  3.55149664E-10
  2 69 74  3.55149664E-10
  2 70 72  3.55149664E-10
  2 70 73  3.55149664E-10
  2 70 74  3.55149664E-10
  2 70 75  3.55149664E-10
  2 71 72  3.55149664E-10
  2 71 73  3.55149664E-10
  2 71 74  3.55149664E-10
  2 71 75  3.55149664E-10
  2 71 76  3.55149664E-10
  2 71 87  2.20446487E-09
  2 71 88  2.20446487E-09
  2 71 89  2.20446487E-09
  2 71 92  2.20446487E-09
  2 72 73  3.55149664E-10
  2 72 74  3.55149664E-10
  2 72 75  3.55149664E-10
  2 72 76  3.55149664E-10
  2 72 80  1.22526605E-08
  2 72 81  1.22526605E-08
  2 72 82  1.22526605E-08
  2 72 89  2.20446487E-09
  2 72 90  2.20446487E-09
  2 72 91  2.20446487E-09
  2 72 92  2.20446487E-09
  2 72 93  2.20446487E-09
  4 73 74  3.55149664E-10
  2 73 75  3.55149664E-10
  2 73 76  3.55149664E-10
  2 73 77  1.22526605E-08
  2 73 78  1.22526605E-08
  2 73 79  1.22526605E-08
  2 73 80  1.22526605E-08
  2 73 81  1.22526605E-08
  2 73 82  1.22526605E-08
  2 74 76  3.55149664E-10
  2 74 77  1.22526605E-08
  2 74 78  1.22526605E-08
  2 74 79  1.22526605E-08
  2 74 80  1.22526605E-08
  2 74 81  1.22526605E-08
  2 74 82  1.22526605E-08
  2 74 95  2.20446487E-09
  2 74 98  2.20446487E-09
  2 74 99  2.20446487E-09
  2 74 100  2.20446487E-09
  2 75 77  1.22526605E-08
  2 75 78  1.22526605E-08
  2 75 79  1.22526605E-08
  2 75 80  1.22526605E-08
  2 75 81  1.22526605E-08
  2 75 82  1.22526605E-08
  2 75 95  2.20446487E-09
  2 75 96  2.20446487E-09
  2 75 97  2.20446487E-09
  2 75 98  2.20446487E-09
  2 75 99  2.20446487E-09
  2 75 100  2.20446487E-09
  4 76 78  1.22526605E-08
  2 76 79  1.22526605E-08
  2 76 80  1.22526605E-08
  2 76 81  1.22526605E-08
  2 76 82  1.22526605E-08
  2 76 83  1.22526605E-08
  2 76 96  2.20446487E-09
  2 76 97  2.20446487E-09
  2 76 98  2.20446487E-09
  2 76 99  2.20446487E-09
  2 77 80  1.22526605E-08
  2 77 81  1.22526605E-08
  2 77 82  1.22526605E-08
  2 77 83  1.22526605E-08
  2 77 84  1.22526605E-08
  2 77 107  8.04401499E-11
  4 78 81  1.22526605E-08
  4 78 82  1.22526605E-08
  2 78 107  8.04401499E-11
  2 78 108  8.04401499E-11
  2 78 109  8.04401499E-11
  2 78 110  8.04401499E-11
  2 79 107  8.04401499E-11
  2 79 108  8.04401499E-11
  2 84 99  4.12227296E-10
  2 84 100  4.12227296E-10
  2 85 97  4.12227296E-10
  2 85 98  4.12227296E-10
  2 85 99  4.12227296E-10
  2 85 100  4.12227296E-10
  2 85 101  4.12227296E-10
  2 86 96  4.12227296E-10
  2 86 97  4.12227296E-10
  2 86 98  4.12227296E-10
  2 86 99  4.12227296E-10
  2 86 100  4.12227296E-10
  2 86 101  4.12227296E-10
  2 86 102  4.12227296E-10
  2 87 95  4.12227296E-10
  2 87 96  4.12227296E-10
  2 87 97  4.12227296E-10
  2 87 98  4.12227296E-10
  2 87 99  4.12227296E-10
  2 88 95  4.12227296E-10
  2 88 96  4.12227296E-10
  2 88 97  4.12227296E-10
  2 88 98  4.12227296E-10
  2 89 95  4.12227296E-10
  2 89 96  4.12227296E-10
  2 89 97  4.12227296E-10
  2 89 98  4.12227296E-10
  2 90 94  4.12227296E-10
  2 90 95  4.12227296E-10
  2 90 96  4.12227296E-10
  2 90 97  4.12227296E-10
  2 90 98  4.12227296E-10
  2 91 94  4.12227296E-10
  2 91 95  4.12227296E-10
  2 91 96  4.12227296E-10
  2 91 97  4.12227296E-10
  2 92 92  4.12227296E-10
  2 92 93  4.12227296E-10
  2 92 94  4.12227296E-10
  2 92 95  4.12227296E-10
  2 92 96  4.12227296E-10
  2 93 92  4.12227296E-10
  2 93 93  4.12227296E-10
  2 93 94  4.12227296E-10
  2 93 95  4.12227296E-10
  2 94 93  4.12227296E-10
  2 94 94  4.12227296E-10
  2 94 101  2.56215105E-09
  2 94 102  2.56215105E-09
  2 94 103  2.56215105E-09
  2 94 104  2.56215105E-09
  2 95 93  4.12227296E-10
  2 95 98  2.56215105E-09
  2 95 99  2.56215105E-09
  2 95 100  2.56215105E-09
  2 95 101  2.56215105E-09
  2 95 102  2.56215105E-09
  2 95 103  2.56215105E-09
  2 95 104  2.56215105E-09
  4 95 105  2.56215105E-09
  4 95 106  2.56215105E-09
  4 95 107  2.56215105E-09
  4 95 108  2.56215105E-09
  4 95 110  2.56215105E-09
  4 95 112  2.56215105E-09
  2 95 113  2.56215105E-09
  2 95 114  2.56215105E-09
  2 95 115  2.56215105E-09
  2 95 116  2.56215105E-09
  2 95 117  2.56215105E-09
  2 96 95  2.56215105E-09
  2 96 96  2.56215105E-09
  2 96 97  2.56215105E-09
  2 96 98  2.56215105E-09
  2 96 99  2.56215105E-09
  2 96 100  2.56215105E-09
  2 96 101  2.56215105E-09
  2 96 102  2.56215105E-09
  2 96 103  2.56215105E-09
  2 96 116  2.56215105E-09
  2 96 117  2.56215105E-09
  2 96 118  2.56215105E-09
  4 97 61  3.04413985E-10
  4 97 62  3.04413985E-10
  2 97 70  3.04413985E-10
  2 97 76  3.04413985E-10
  2 97 79  3.04413985E-10
  2 97 80  3.04413985E-10
  2 97 81  3.04413985E-10
  2 97 82  3.04413985E-10
  2 97 94  2.56215105E-09
  2 97 95  2.56215105E-09
  2 97 96  2.56215105E-09
  2 97 97  2.56215105E-09
  2 97 98  2.56215105E-09
  2 97 99  2.56215105E-09
  2 97 100  2.56215105E-09
  2 97 101  2.56215105E-09
  2 97 102  2.56215105E-09
  2 98 60  3.04413985E-10
  2 98 61  3.04413985E-10
  2 98 62  3.04413985E-10
  2 98 63  3.04413985E-10
  2 98 69  3.04413985E-10
  2 98 70  3.04413985E-10
  2 98 71  3.04413985E-10
  2 98 72  3.04413985E-10
  2 98 76  3.04413985E-10
  2 98 77  3.04413985E-10
  2 98 78  3.04413985E-10
  2 98 79  3.04413985E-10
  2 98 80  3.04413985E-10
  2 98 81  3.04413985E-10
  2 98 94  2.56215105E-09
  2 98 95  2.56215105E-09
  2 98 96  2.56215105E-09
  2 98 97  2.56215105E-09
  2 98 98  2.56215105E-09
  2 98 99  2.56215105E-09
  2 98 100  2.56215105E-09
  4 98 101  2.56215105E-09
  2 99 46  3.04413985E-10
  2 99 47  3.04413985E-10
  2 99 59  3.04413985E-10
  2 99 60  3.04413985E-10
  2 99 61  3.04413985E-10
  2 99 62  3.04413985E-10
  2 99 63  3.04413985E-10
  2 99 64  3.04413985E-10
  2 99 69  3.04413985E-10
  2 99 70  3.04413985E-10
  2 99 71  3.04413985E-10
  2 99 72  3.04413985E-10
  2 99 73  3.04413985E-10
  2 99 74  3.04413985E-10
  2 99 75  3.04413985E-10
  2 99 76  3.04413985E-10
  2 99 77  3.04413985E-10
  2 99 78  3.04413985E-10
  2 99 79  3.04413985E-10
  2 99 80  3.04413985E-10
  2 99 81  3.04413985E-10
  2 100 29  3.95738189E-09
  2 100 30  3.95738189E-09
  2 100 31  3.95738189E-09
  2 100 32  3.95738189E-09
  2 100 33  3.95738189E-09
  2 100 35  3.04413985E-10
  2 100 36  3.04413985E-10
  2 100 37  3.04413985E-10
  2 100 38  3.04413985E-10
  2 100 39  3.04413985E-10
  2 100 40  3.04413985E-10
  2 100 41  3.04413985E-10
  2 100 42  3.04413985E-10
  2 100 43  3.04413985E-10
  2 100 44  3.04413985E-10
  2 100 45  3.04413985E-10
  2 100 46  3.04413985E-10
  2 100 47  3.04413985E-10
  2 100 48  3.04413985E-10
  2 100 49  3.04413985E-10
  2 100 50  3.04413985E-10
  2 100 51  3.04413985E-10
  2 100 52  3.04413985E-10
  2 100 53  3.04413985E-10
  2 100 54  3.04413985E-10
  2 100 55  3.04413985E-10
  2 100 56  3.04413985E-10
  2 100 57  3.04413985E-10
  2 100 58  3.04413985E-10
  2 100 59  3.04413985E-10
  2 100 60  3.04413985E-10
  2 100 61  3.04413985E-10
  2 100 62  3.04413985E-10
  2 100 63  3.04413985E-10
  2 100 64  3.04413985E-10
  2 100 65  3.04413985E-10
  2 100 66  3.04413985E-10
  2 100 67  3.04413985E-10
  2 100 68  3.04413985E-10
  2 100 69  3.04413985E-10
  2 100 70  3.04413985E-10
  2 100 71  3.04413985E-10
  2 100 72  3.04413985E-10
  2 100 73  3.04413985E-10
  2 100 74  3.04413985E-10
  2 100 75  3.04413985E-10
  2 100 76  3.04413985E-10
  2 100 77  3.04413985E-10
  2 100 78  3.04413985E-10
  2 100 79  3.04413985E-10
  2 101 27  3.95738189E-09
  2 101 28  3.95738189E-09
  2 101 29  3.95738189E-09
  2 101 30  3.95738189E-09
  2 101 31  3.95738189E-09
  2 101 32  3.95738189E-09
  2 101 33  3.95738189E-09
  2 101 34  3.95738189E-09
  2 101 35  3.95738189E-09
  2 101 36  3.95738189E-09
  2 101 39  3.04413985E-10
  2 101 40  3.04413985E-10
  2 101 41  3.04413985E-10
  2 101 42  3.04413985E-10
  2 101 43  3.04413985E-10
  2 101 44  3.04413985E-10
  2 101 45  3.04413985E-10
  2 101 46  3.04413985E-10
  2 101 47  3.04413985E-10
  2 101 48  3.04413985E-10
  2 101 49  3.04413985E-10
  2 101 50  3.04413985E-10
  2 101 51  3.04413985E-10
  2 101 52  3.04413985E-10
  2 101 53  3.04413985E-10
  2 101 54  3.04413985E-10
  2 101 55  3.04413985E-10
  2 101 56  3.04413985E-10
  2 101 57  3.04413985E-10
  2 101 58  3.04413985E-10
  2 101 59  3.04413985E-10
  2 101 60  3.04413985E-10
  2 101 61  3.04413985E-10
  2 101 62  3.04413985E-10
  2 101 63  3.04413985E-10
  2 101 64  3.04413985E-10
  2 101 65  3.04413985E-10
  2 101 66  3.04413985E-10
  2 101 67  3.04413985E-10
  2 101 68  3.04413985E-10
  2 101 69  3.04413985E-10
  2 101 70  3.04413985E-10
  2 101 71  3.04413985E-10
  2 101 72  3.04413985E-10
  2 101 73  3.04413985E-10
  2 101 75  3.04413985E-10
  2 102 21  3.95738189E-09
  2 102 22  3.95738189E-09
  2 102 23  3.95738189E-09
  2 102 24  3.95738189E-09
  2 102 25  3.95738189E-09
  2 102 26  3.95738189E-09
  2 102 27  3.95738189E-09
  2 102 28  3.95738189E-09
  2 102 29  3.95738189E-09
  2 102 30  3.95738189E-09
  2 102 31  3.95738189E-09
  2 102 32  3.95738189E-09
  2 102 33  3.95738189E-09
  2 102 34  3.95738189E-09
  2 102 35  3.95738189E-09
  2 102 36  3.95738189E-09
  2 102 37  3.95738189E-09
  2 102 38  3.95738189E-09
  2 102 39  3.95738189E-09
  2 102 42  3.04413985E-10
  2 102 43  3.04413985E-10
  2 102 44  3.04413985E-10
  2 102 45  3.04413985E-10
  2 102 46  3.04413985E-10
  2 102 47  3.04413985E-10
  2 102 48  3.04413985E-10
  2 102 49  3.04413985E-10
  2 102 50  3.04413985E-10
  2 102 51  3.04413985E-10
  2 102 52  3.04413985E-10
  2 102 53  3.04413985E-10
  2 102 54  3.04413985E-10
  2 102 55  3.04413985E-10
  2 102 56  3.04413985E-10
  2 102 57  3.04413985E-10
  2 102 58  3.04413985E-10
  2 102 59  3.04413985E-10
  2 102 60  3.04413985E-10
  2 102 61  3.04413985E-10
  2 102 62  3.04413985E-10
  2 102 63  3.04413985E-10
  2 102 64  3.04413985E-10
  2 102 65  3.04413985E-10
  2 102 66  3.04413985E-10
  2 102 67  3.04413985E-10
  2 102 68  3.04413985E-10
  2 102 69  3.04413985E-10
  2 102 70  3.04413985E-10
  2 102 71  3.04413985E-10
  2 102 72  3.04413985E-10
  2 103 20  3.95738189E-09
  2 103 21  3.95738189E-09
  2 103 22  3.95738189E-09
  2 103 23  3.95738189E-09
  2 103 24  3.95738189E-09
  2 103 25  3.95738189E-09
  2 103 26  3.95738189E-09
  2 103 27  3.95738189E-09
  2 103 28  3.95738189E-09
  2 103 29  3.95738189E-09
  2 103 30  3.95738189E-09
  2 103 31  3.95738189E-09
  2 103 32  3.95738189E-09
  2 103 33  3.95738189E-09
  2 103 34  3.95738189E-09
  2 103 35  3.95738189E-09
  2 103 36  3.95738189E-09
  2 103 37  3.95738189E-09
  2 103 38  3.95738189E-09
  2 103 39  3.95738189E-09
  2 103 40  3.95738189E-09
  2 103 41  3.95738189E-09
  2 103 42  3.95738189E-09
  2 103 43  3.95738189E-09
  2 103 46  3.04413985E-10
  2 103 47  3.04413985E-10
  2 103 48  3.04413985E-10
  2 103 49  3.04413985E-10
  2 103 50  3.04413985E-10
  2 103 51  3.04413985E-10
  2 103 52  3.04413985E-10
  2 103 53  3.04413985E-10
  2 103 54  3.04413985E-10
  2 103 55  3.04413985E-10
  2 103 56  3.04413985E-10
  2 103 57  3.04413985E-10
  2 103 58  3.04413985E-10
  2 103 59  3.04413985E-10
  2 103 60  3.04413985E-10
  2 103 61  3.04413985E-10
  2 103 62  3.04413985E-10
  2 103 63  3.04413985E-10
  2 103 64  3.04413985E-10
  2 103 65  3.04413985E-10
  2 103 66  3.04413985E-10
  2 103 67  3.04413985E-10
  2 103 68  3.04413985E-10
  2 103 69  3.04413985E-10
  2 104 19  3.95738189E-09
  2 104 20  3.95738189E-09
  2 104 21  3.95738189E-09
  2 104 22  3.95738189E-09
  2 104 23  3.95738189E-09
  2 104 24  3.95738189E-09
  2 104 25  3.95738189E-09
  2 104 26  3.95738189E-09
  2 104 27  3.95738189E-09
  2 104 28  3.95738189E-09
  2 104 29  3.95738189E-09
  2 104 30  3.95738189E-09
  2 104 31  3.95738189E-09
  2 104 32  3.95738189E-09
  2 104 33  3.95738189E-09
  2 104 34  3.95738189E-09
  2 104 35  3.95738189E-09
  2 104 36  3.95738189E-09
  2 104 37  3.95738189E-09
  2 104 38  3.95738189E-09
  2 104 39  3.95738189E-09
  2 104 40  3.95738189E-09
  2 104 41  3.95738189E-09
  2 104 42  3.95738189E-09
  2 104 43  3.95738189E-09
  2 104 44  3.95738189E-09
  2 104 45  3.95738189E-09
  2 104 46  3.95738189E-09
  2 104 47  3.04413985E-10
  2 104 48  3.04413985E-10
  2 104 49  3.04413985E-10
  2 104 50  3.04413985E-10
  2 104 51  3.04413985E-10
  2 104 52  3.04413985E-10
  2 104 53  3.04413985E-10
  2 104 54  3.04413985E-10
  2 104 55  3.04413985E-10
  2 104 56  3.04413985E-10
  2 104 57  3.04413985E-10
  2 104 58  3.04413985E-10
  2 104 59  3.04413985E-10
  2 104 60  3.04413985E-10
  2 104 61  3.04413985E-10
  2 104 62  3.04413985E-10
  2 104 63  3.04413985E-10
  2 104 64  3.04413985E-10
  2 105 18  3.95738189E-09
  2 105 19  3.95738189E-09
  2 105 20  3.95738189E-09
  2 105 21  3.95738189E-09
  2 105 22  3.95738189E-09
  2 105 23  3.95738189E-09
  2 105 24  3.95738189E-09
  2 105 25  3.95738189E-09
  2 105 26  3.95738189E-09
  2 105 27  3.95738189E-09
  2 105 28  3.95738189E-09
  2 105 29  3.95738189E-09
  2 105 30  3.95738189E-09
  2 105 31  3.95738189E-09
  2 105 32  3.95738189E-09
  2 105 33  3.95738189E-09
  2 105 34  3.95738189E-09
  2 105 35  3.95738189E-09
  2 105 36  3.95738189E-09
  2 105 37  3.95738189E-09
  2 105 38  3.95738189E-09
  2 105 39  3.95738189E-09
  2 105 40  3.95738189E-09
  2 105 41  3.95738189E-09
  2 105 42  3.95738189E-09
  2 105 43  3.95738189E-09
  2 105 44  3.95738189E-09
  2 105 45  3.95738189E-09
  2 105 46  3.95738189E-09
  2 105 47  3.95738189E-09
  2 105 48  3.95738189E-09
  2 105 52  3.04413985E-10
  2 105 53  3.04413985E-10
  2 105 57  3.04413985E-10
  2 105 58  3.04413985E-10
  2 105 59  3.04413985E-10
  2 106 18  3.95738189E-09
  2 106 19  3.95738189E-09
  2 106 20  3.95738189E-09
  2 106 21  3.95738189E-09
  2 106 22  3.95738189E-09
  2 106 23  3.95738189E-09
  2 106 24  3.95738189E-09
  2 106 25  3.95738189E-09
  2 106 26  3.95738189E-09
  2 106 27  3.95738189E-09
  2 106 28  3.95738189E-09
  2 106 29  3.95738189E-09
  2 106 30  3.95738189E-09
  2 106 31  3.95738189E-09
  2 106 32  3.95738189E-09
  2 106 33  3.95738189E-09
  2 106 34  3.95738189E-09
  2 106 35  3.95738189E-09
  2 106 36  3.95738189E-09
  2 106 37  3.95738189E-09
  2 106 38  3.95738189E-09
  2 106 39  3.95738189E-09
  2 106 40  3.95738189E-09
  2 106 41  3.95738189E-09
  2 106 42  3.95738189E-09
  2 106 43  3.95738189E-09
  2 106 44  3.95738189E-09
  2 106 45  3.95738189E-09
  2 106 46  3.95738189E-09
  2 106 47  3.95738189E-09
  2 106 48  3.95738189E-09
  2 106 49  3.95738189E-09
  2 106 50  3.95738189E-09
  2 106 51  3.95738189E-09
  2 106 70  3.95738189E-09
  2 107 18  3.95738189E-09
  2 107 19  3.95738189E-09
  2 107 20  3.95738189E-09
  2 107 21  3.95738189E-09
  2 107 22  3.95738189E-09
  2 107 23  3.95738189E-09
  2 107 24  3.95738189E-09
  2 107 25  3.95738189E-09
  2 107 26  3.95738189E-09
  2 107 27  3.95738189E-09
  2 107 28  3.95738189E-09
  2 107 29  3.95738189E-09
  2 107 30  3.95738189E-09
  2 107 31  3.95738189E-09
  2 107 32  3.95738189E-09
  2 107 33  3.95738189E-09
  2 107 34  3.95738189E-09
  2 107 35  3.95738189E-09
  2 107 36  3.95738189E-09
  2 107 37  3.95738189E-09
  2 107 38  3.95738189E-09
  2 107 39  3.95738189E-09
  2 107 40  3.95738189E-09
  2 107 41  3.95738189E-09
  2 107 42  3.95738189E-09
  2 107 43  3.95738189E-09
  2 107 44  3.95738189E-09
  2 107 45  3.95738189E-09
  2 107 46  3.95738189E-09
  2 107 47  3.95738189E-09
  2 107 48  3.95738189E-09
  2 107 49  3.95738189E-09
  2 107 50  3.95738189E-09
  2 107 51  3.95738189E-09
  2 107 52  3.95738189E-09
  2 107 53  3.95738189E-09
  2 107 54  3.95738189E-09
  2 107 55  3.95738189E-09
  2 107 56  3.95738189E-09
  2 107 57  3.95738189E-09
  2 107 63  3.95738189E-09
  2 107 64  3.95738189E-09
  2 107 65  3.95738189E-09
  2 107 66  3.95738189E-09
  2 107 67  3.95738189E-09
  2 107 68  3.95738189E-09
  2 107 69  3.95738189E-09
  2 107 70  3.95738189E-09
  2 107 71  3.95738189E-09
  2 107 72  3.95738189E-09
  2 108 17  3.95738189E-09
  2 108 18  3.95738189E-09
  2 108 19  3.95738189E-09
  2 108 20  3.95738189E-09
  2 108 21  3.95738189E-09
  2 108 22  3.95738189E-09
  2 108 23  3.95738189E-09
  2 108 24  3.95738189E-09
  2 108 25  3.95738189E-09
  2 108 26  3.95738189E-09
  2 108 27  3.95738189E-09
  2 108 28  3.95738189E-09
  2 108 29  3.95738189E-09
  2 108 30  3.95738189E-09
  2 108 31  3.95738189E-09
  2 108 32  3.95738189E-09
  2 108 33  3.95738189E-09
  2 108 34  3.95738189E-09
  2 108 35  3.95738189E-09
  2 108 36  3.95738189E-09
  2 108 37  3.95738189E-09
  2 108 38  3.95738189E-09
  2 108 39  3.95738189E-09
  2 108 40  3.95738189E-09
  2 108 41  3.95738189E-09
  2 108 42  3.95738189E-09
  2 108 43  3.95738189E-09
  2 108 44  3.95738189E-09
  2 108 45  3.95738189E-09
  2 108 46  3.95738189E-09
  2 108 47  3.95738189E-09
  2 108 48  3.95738189E-09
  2 108 49  3.95738189E-09
  2 108 50  3.95738189E-09
  2 108 51  3.95738189E-09
  2 108 52  3.95738189E-09
  2 108 53  3.95738189E-09
  2 108 54  3.95738189E-09
  2 108 55  3.95738189E-09
  2 108 56  3.95738189E-09
  2 108 57  3.95738189E-09
  2 108 58  3.95738189E-09
  2 108 59  3.95738189E-09
  2 108 60  3.95738189E-09
  2 108 61  3.95738189E-09
  2 108 62  3.95738189E-09
  2 108 63  3.95738189E-09
  2 108 64  3.95738189E-09
  2 108 65  3.95738189E-09
  2 108 66  3.95738189E-09
  2 108 67  3.95738189E-09
  2 108 68  3.95738189E-09
  2 108 69  3.95738189E-09
  2 108 70  3.95738189E-09
  2 108 71  3.95738189E-09
  2 108 72  3.95738189E-09
  2 108 73  3.95738189E-09
  2 109 12  3.95738189E-09
  2 109 13  3.95738189E-09
  2 109 14  3.95738189E-09
  2 109 15  3.95738189E-09
  2 109 16  3.95738189E-09
  2 109 17  3.95738189E-09
  2 109 18  3.95738189E-09
  2 109 19  3.95738189E-09
  2 109 20  3.95738189E-09
  2 109 21  3.95738189E-09
  2 109 22  3.95738189E-09
  2 109 23  3.95738189E-09
  2 109 24  3.95738189E-09
  2 109 25  3.95738189E-09
  2 109 26  3.95738189E-09
  2 109 27  3.95738189E-09
  2 109 28  3.95738189E-09
  2 109 29  3.95738189E-09
  2 109 30  1.09639799E-08
  2 109 31  1.09639799E-08
  2 109 32  1.09639799E-08
  2 109 33  1.09639799E-08
  2 109 34  1.09639799E-08
  2 109 35  3.95738189E-09
  2 109 36  3.95738189E-09
  2 109 37  3.95738189E-09
  2 109 38  3.95738189E-09
  2 109 39  3.95738189E-09
  2 109 40  3.95738189E-09
  2 109 41  3.95738189E-09
  2 109 42  3.95738189E-09
  2 109 43  3.95738189E-09
  2 109 44  3.95738189E-09
  2 109 45  3.95738189E-09
  2 109 46  3.95738189E-09
  2 109 47  3.95738189E-09
  2 109 48  3.95738189E-09
  2 109 49  3.95738189E-09
  2 109 50  3.95738189E-09
  2 109 51  3.95738189E-09
  2 109 52  3.95738189E-09
  2 109 53  3.95738189E-09
  2 109 54  3.95738189E-09
  2 109 55  3.95738189E-09
  2 109 56  3.95738189E-09
  2 109 57  3.95738189E-09
  2 109 58  3.95738189E-09
  2 109 59  3.95738189E-09
  2 109 60  3.95738189E-09
  2 109 61  3.95738189E-09
  2 109 62  3.95738189E-09
  2 109 63  3.95738189E-09
  2 109 64  3.95738189E-09
  2 109 65  3.95738189E-09
  2 109 66  3.95738189E-09
  2 109 67  3.95738189E-09
  2 109 68  3.95738189E-09
  2 109 69  3.95738189E-09
  2 109 70  3.95738189E-09
  2 109 71  3.95738189E-09
  2 110 11  3.95738189E-09
  2 110 12  3.95738189E-09
  2 110 13  3.95738189E-09
  2 110 14  3.95738189E-09
  2 110 15  3.95738189E-09
  2 110 16  3.95738189E-09
  2 110 17  3.95738189E-09
  2 110 18  3.95738189E-09
  2 110 19  3.95738189E-09
  2 110 20  3.95738189E-09
  2 110 21  3.95738189E-09
  2 110 22  3.95738189E-09
  2 110 23  3.95738189E-09
  2 110 24  3.95738189E-09
  2 110 25  3.95738189E-09
  2 110 26  3.95738189E-09
  2 110 27  1.09639799E-08
  2 110 28  1.09639799E-08
  2 110 29  1.09639799E-08
  2 110 30  1.09639799E-08
  2 110 31  1.09639799E-08
  2 110 32  1.09639799E-08
  2 110 33  1.09639799E-08
  2 110 34  1.09639799E-08
  2 110 35  1.09639799E-08
  2 110 36  2.83548983E-08
  2 110 37  3.95738189E-09
  2 110 38  3.95738189E-09
  2 110 39  3.95738189E-09
  2 110 40  3.95738189E-09
  2 110 41  3.95738189E-09
  2 110 42  3.95738189E-09
  2 110 43  3.95738189E-09
  2 110 44  3.95738189E-09
  2 110 45  3.95738189E-09
  2 110 46  3.95738189E-09
  2 110 47  3.95738189E-09
  2 110 48  3.95738189E-09
  2 110 49  3.95738189E-09
  2 110 50  3.95738189E-09
  2 110 51  3.95738189E-09
  2 110 52  3.95738189E-09
  2 110 53  3.95738189E-09
  2 110 54  3.95738189E-09
  2 110 55  3.95738189E-09
  2 110 56  3.95738189E-09
  2 110 57  3.95738189E-09
  2 110 58  3.95738189E-09
  2 110 59  3.95738189E-09
  2 110 60  3.95738189E-09
  2 110 61  3.95738189E-09
  2 110 62  3.95738189E-09
  2 110 63  3.95738189E-09
  2 110 64  3.95738189E-09
  2 110 65  3.95738189E-09
  2 110 66  3.95738189E-09
  2 110 67  3.95738189E-09
  2 110 68  3.95738189E-09
  2 110 69  3.95738189E-09
  2 110 70  3.95738189E-09
  2 110 71  3.95738189E-09
  2 111 10  3.95738189E-09
  2 111 11  3.95738189E-09
  2 111 12  3.95738189E-09
  2 111 13  3.95738189E-09
  2 111 14  3.95738189E-09
  2 111 15  3.95738189E-09
  2 111 16  1.09639799E-08
  2 111 17  1.09639799E-08
  2 111 18  1.09639799E-08
  2 111 19  1.09639799E-08
  2 111 20  1.09639799E-08
  2 111 21  1.09639799E-08
  2 111 22  1.09639799E-08
  2 111 23  1.09639799E-08
  2 111 24  1.09639799E-08
  2 111 25  1.09639799E-08
  2 111 26  1.09639799E-08
  2 111 27  1.09639799E-08
  2 111 28  1.09639799E-08
  2 111 29  1.09639799E-08
  2 111 30  1.09639799E-08
  2 111 31  1.09639799E-08
  2 111 32  1.09639799E-08
  2 111 33  1.09639799E-08
  2 111 34  1.09639799E-08
  2 111 35  2.83548983E-08
  2 111 36  2.83548983E-08
  2 111 37  2.83548983E-08
  2 111 38  2.83548983E-08
  2 111 39  3.95738189E-09
  2 111 40  3.95738189E-09
  2 111 41  3.95738189E-09
  2 111 42  3.95738189E-09
  2 111 43  3.95738189E-09
  2 111 44  3.95738189E-09
  2 111 45  3.95738189E-09
  2 111 46  3.95738189E-09
  2 111 47  3.95738189E-09
  2 111 48  3.95738189E-09
  2 111 49  3.95738189E-09
  2 111 50  3.95738189E-09
  2 111 51  3.95738189E-09
  2 111 52  3.95738189E-09
  2 111 53  3.95738189E-09
  2 111 54  3.95738189E-09
  2 111 55  3.95738189E-09
  2 111 56  3.95738189E-09
  2 111 57  3.95738189E-09
  2 111 58  3.95738189E-09
  2 111 59  3.95738189E-09
  2 111 60  3.95738189E-09
  2 111 61  3.95738189E-09
  2 111 62  3.95738189E-09
  2 111 63  3.95738189E-09
  2 111 64  3.95738189E-09
  2 111 65  3.95738189E-09
  2 111 66  3.95738189E-09
  2 111 67  3.95738189E-09
  2 111 68  3.95738189E-09
  2 111 69  3.95738189E-09
  2 111 70  3.95738189E-09
  2 111 71  3.95738189E-09
  2 112 10  3.95738189E-09
  2 112 11  3.95738189E-09
  2 112 12  3.95738189E-09
  2 112 13  1.09639799E-08
  2 112 14  1.09639799E-08
  2 112 15  1.09639799E-08
  2 112 16  1.09639799E-08
  2 112 17  1.09639799E-08
  2 112 18  1.09639799E-08
  2 112 19  1.09639799E-08
  2 112 20  1.09639799E-08
  2 112 21  1.09639799E-08
  2 112 22  1.09639799E-08
  2 112 23  1.09639799E-08
  2 112 24  1.09639799E-08
  2 112 25  1.09639799E-08
  2 112 26  1.09639799E-08
  2 112 27  1.09639799E-08
  2 112 28  1.09639799E-08
  2 112 29  1.09639799E-08
  2 112 30  1.09639799E-08
  2 112 31  1.09639799E-08
  2 112 32  1.09639799E-08
  2 112 33  1.09639799E-08
  2 112 34  2.83548983E-08
  2 112 35  2.83548983E-08
  2 112 36  2.83548983E-08
  2 112 37  2.83548983E-08
  2 112 38  2.83548983E-08
  2 112 39  2.83548983E-08
  2 112 40  2.83548983E-08
  2 112 41  3.95738189E-09
  2 112 42  3.95738189E-09
  2 112 43  3.95738189E-09
  2 112 44  3.95738189E-09
  2 112 45  3.95738189E-09
  2 112 46  3.95738189E-09
  2 112 47  3.95738189E-09
  2 112 48  3.95738189E-09
  2 112 49  3.95738189E-09
  2 112 50  3.95738189E-09
  2 112 51  3.95738189E-09
  2 112 52  3.95738189E-09
  2 112 53  3.95738189E-09
  2 112 54  3.95738189E-09
  2 112 55  3.95738189E-09
  2 112 56  3.95738189E-09
  2 112 57  3.95738189E-09
  2 112 58  3.95738189E-09
  2 112 59  3.95738189E-09
  2 112 60  3.95738189E-09
  2 112 61  3.95738189E-09
  2 112 62  3.95738189E-09
  2 112 63  3.95738189E-09
  2 112 64  3.95738189E-09
  2 112 65  3.95738189E-09
  2 112 66  3.95738189E-09
  2 112 67  3.95738189E-09
  2 112 68  3.95738189E-09
  2 112 69  3.95738189E-09
  2 112 70  3.95738189E-09
  2 112 71  3.95738189E-09
  2 112 72  3.95738189E-09
  2 113 5  3.95738189E-09
  2 113 6  3.95738189E-09
  2 113 8  3.95738189E-09
  2 113 9  3.95738189E-09
  2 113 10  3.95738189E-09
  2 113 11  1.09639799E-08
  2 113 12  1.09639799E-08
  2 113 13  1.09639799E-08
  2 113 14  1.09639799E-08
  2 113 15  1.09639799E-08
  2 113 16  1.09639799E-08
  2 113 17  1.09639799E-08
  2 113 18  1.09639799E-08
  2 113 19  1.09639799E-08
  2 113 20  1.09639799E-08
  2 113 21  1.09639799E-08
  2 113 22  1.09639799E-08
  2 113 23  1.09639799E-08
  2 113 24  1.09639799E-08
  2 113 25  1.09639799E-08
  2 113 26  1.09639799E-08
  2 113 27  1.09639799E-08
  2 113 28  1.09639799E-08
  2 113 29  1.09639799E-08
  2 113 30  1.09639799E-08
  2 113 31  1.09639799E-08
  2 113 32  1.09639799E-08
  2 113 33  2.83548983E-08
  2 113 34  2.83548983E-08
  2 113 35  2.83548983E-08
  2 113 36  2.83548983E-08
  2 113 37  2.83548983E-08
  2 113 38  2.83548983E-08
  2 113 39  2.83548983E-08
  2 113 40  2.83548983E-08
  2 113 41  2.83548983E-08
  2 113 42  2.83548983E-08
  2 113 43  3.95738189E-09
  2 113 44  3.95738189E-09
  2 113 45  3.95738189E-09
  2 113 46  3.95738189E-09
  2 113 47  3.95738189E-09
  2 113 48  3.95738189E-09
  2 113 49  3.95738189E-09
  2 113 50  3.95738189E-09
  2 113 51  3.95738189E-09
  2 113 52  3.95738189E-09
  2 113 53  3.95738189E-09
  2 113 54  3.95738189E-09
  2 113 55  3.95738189E-09
  2 113 56  3.95738189E-09
  2 113 57  3.95738189E-09
  2 113 58  3.95738189E-09
  2 113 59  3.95738189E-09
  2 113 60  3.95738189E-09
  2 113 61  3.95738189E-09
  2 113 62  3.95738189E-09
  2 113 63  3.95738189E-09
  2 113 64  3.95738189E-09
  2 113 65  3.95738189E-09
  2 113 66  3.95738189E-09
  2 113 67  3.95738189E-09
  2 113 68  3.95738189E-09
  2 113 69  3.95738189E-09
  2 113 70  3.95738189E-09
  2 113 71  3.95738189E-09
  2 113 72  3.95738189E-09
  2 114 2  5.25114223E-09
  2 114 3  3.95738189E-09
  2 114 4  3.95738189E-09
  2 114 5  3.95738189E-09
  2 114 6  3.95738189E-09
  2 114 7  3.95738189E-09
  2 114 8  3.95738189E-09
  2 114 9  3.95738189E-09
  2 114 10  1.09639799E-08
  2 114 11  1.09639799E-08
  2 114 12  1.09639799E-08
  2 114 13  1.09639799E-08
  2 114 14  1.09639799E-08
  2 114 15  1.09639799E-08
  2 114 16  1.09639799E-08
  2 114 17  1.09639799E-08
  2 114 18  1.09639799E-08
  2 114 19  1.09639799E-08
  2 114 20  1.09639799E-08
  2 114 21  1.09639799E-08
  2 114 22  1.09639799E-08
  2 114 23  1.09639799E-08
  2 114 24  1.09639799E-08
  2 114 25  1.09639799E-08
  2 114 32  2.83548983E-08
  2 114 33  2.83548983E-08
  2 114 34  2.83548983E-08
  2 114 35  2.83548983E-08
  2 114 36  2.83548983E-08
  2 114 37  2.83548983E-08
  2 114 38  2.83548983E-08
  2 114 39  2.83548983E-08
  2 114 40  2.83548983E-08
  2 114 41  2.83548983E-08
  2 114 42  2.83548983E-08
  2 114 43  2.83548983E-08
  2 114 44  2.83548983E-08
  2 114 45  2.83548983E-08
  2 114 46  3.95738189E-09
  2 114 47  3.95738189E-09
  2 114 48  3.95738189E-09
  2 114 49  3.95738189E-09
  2 114 50  3.95738189E-09
  2 114 51  3.95738189E-09
  2 114 52  3.95738189E-09
  2 114 53  3.95738189E-09
  2 114 54  3.95738189E-09
  2 114 55  3.95738189E-09
  2 114 56  3.95738189E-09
  2 114 57  3.95738189E-09
  2 114 58  3.95738189E-09
  2 114 59  3.95738189E-09
  2 114 60  3.95738189E-09
  2 114 61  3.95738189E-09
  2 114 62  3.95738189E-09
  2 114 63  3.95738189E-09
  2 114 64  3.95738189E-09
  2 114 65  3.95738189E-09
  2 114 66  3.95738189E-09
  2 114 67  3.95738189E-09
  2 114 68  3.95738189E-09
  2 114 69  3.95738189E-09
  2 114 70  3.95738189E-09
  2 114 71  3.95738189E-09
  2 114 72  3.95738189E-09
  2 114 73  3.95738189E-09
  2 114 74  3.95738189E-09
  2 114 75  3.95738189E-09
  2 115 2  5.25114223E-09
  2 115 3  3.95738189E-09
  2 115 4  3.95738189E-09
  2 115 5  3.95738189E-09
  2 115 6  3.95738189E-09
  2 115 7  1.09639799E-08
  2 115 8  1.09639799E-08
  2 115 9  1.09639799E-08
  2 115 10  1.09639799E-08
  2 115 11  1.09639799E-08
  2 115 12  1.09639799E-08
  2 115 13  1.09639799E-08
  2 115 14  1.09639799E-08
  2 115 15  1.09639799E-08
  2 115 16  1.09639799E-08
  2 115 17  1.09639799E-08
  2 115 18  1.09639799E-08
  2 115 19  1.09639799E-08
  2 115 20  1.09639799E-08
  2 115 24  1.09639799E-08
  2 115 25  1.09639799E-08
  2 115 33  2.83548983E-08
  2 115 34  2.83548983E-08
  2 115 35  2.83548983E-08
  2 115 36  2.83548983E-08
  2 115 37  2.83548983E-08
  2 115 38  2.83548983E-08
  2 115 39  2.83548983E-08
  2 115 40  2.83548983E-08
  2 115 41  2.83548983E-08
  2 115 42  2.83548983E-08
  2 115 43  2.83548983E-08
  2 115 44  2.83548983E-08
  2 115 45  2.83548983E-08
  2 115 46  2.83548983E-08
  2 115 47  3.95738189E-09
  2 115 48  3.95738189E-09
  2 115 49  3.95738189E-09
  2 115 50  3.95738189E-09
  2 115 51  3.95738189E-09
  2 115 52  3.95738189E-09
  2 115 53  3.95738189E-09
  2 115 54  3.95738189E-09
  2 115 55  3.95738189E-09
  2 115 56  3.95738189E-09
  2 115 57  3.95738189E-09
  2 115 58  3.95738189E-09
  2 115 59  3.95738189E-09
  2 115 60  3.95738189E-09
  2 115 61  3.95738189E-09
  2 115 62  3.95738189E-09
  2 115 63  3.95738189E-09
  2 115 64  3.95738189E-09
  2 115 65  3.95738189E-09
  2 115 66  3.95738189E-09
  2 115 67  3.95738189E-09
  2 115 68  3.95738189E-09
  2 115 69  3.95738189E-09
  2 115 70  3.95738189E-09
  2 115 71  3.95738189E-09
  2 115 72  3.95738189E-09
  2 115 73  3.95738189E-09
  2 116 2  5.25114223E-09
  2 116 3  3.95738189E-09
  2 116 4  3.95738189E-09
  2 116 5  3.95738189E-09
  2 116 6  1.09639799E-08
  2 116 7  1.09639799E-08
  2 116 8  1.09639799E-08
  2 116 9  1.09639799E-08
  2 116 10  1.09639799E-08
  2 116 11  1.09639799E-08
  2 116 14  1.09639799E-08
  2 116 15  1.09639799E-08
  2 116 16  1.09639799E-08
  2 116 34  2.83548983E-08
  2 116 35  2.83548983E-08
  2 116 36  2.83548983E-08
  2 116 37  2.83548983E-08
  2 116 38  2.83548983E-08
  2 116 39  2.83548983E-08
  2 116 40  2.83548983E-08
  2 116 41  2.83548983E-08
  2 116 42  2.83548983E-08
  2 116 43  2.83548983E-08
  2 116 44  2.83548983E-08
  2 116 45  3.95738189E-09
  2 116 46  3.95738189E-09
  2 116 47  3.95738189E-09