pcf
* control data
             restart          estimation
       213       122         4         0         2         0
         9         2              single               point         1         0         0          noobsreref
   2.000000E+01  -3.000000E+00   3.000000E-01   1.000000E-02        -7       999          lamforgive        noderforgive
   1.000000E+01   1.000000E+01   1.000000E-03         0         0
   1.000000E-01         1   1.100000E+00               noaui          nosenreuse        noboundscale
         0   1.000000E-02         3         3   1.000000E-02         3   0.000000E+00         1  -1.000000E+00
         0         0         0         0             jcosave          verboserec          jcosaveitn          reisaveitn          parsaveitn        noparsaverun
* singular value decomposition
         1
  10000000    1.000000E-06
1
* parameter groups
 kp_pc_inst:0            relative              1.0000000000E-02       0.0  switch                2.0000000000E+00       parabolic              1.0000000000E-05       5.0000000000E-01       smaller              
 kp_q_inst:0             relative              1.0000000000E-02       0.0  switch                2.0000000000E+00       parabolic              1.0000000000E-05       5.0000000000E-01       smaller              
 irr__multiplier         relative              1.0000000000E-02       0.0  switch                2.0000000000E+00       parabolic              1.0000000000E-05       5.0000000000E-01       smaller              
 cond                    relative              1.0000000000E-02       0.0  switch                2.0000000000E+00       parabolic              1.0000000000E-05       5.0000000000E-01       smaller              
* parameter data
          kp_q_inst:0_i:15_j:135   log                    factor                8.9911346159E-01      5.0000000000E-03      3.0000000000E+00       kp_q_inst:0           1.0000000000E+00      0.0000000000E+00       1          
          kp_q_inst:0_i:25_j:135   log                    factor                6.3900462277E-01      5.0000000000E-03      3.0000000000E+00       kp_q_inst:0           1.0000000000E+00      0.0000000000E+00       1          
          kp_q_inst:0_i:35_j:125   log                    factor                2.9999982405E+00      5.0000000000E-03      3.0000000000E+00       kp_q_inst:0           1.0000000000E+00      0.0000000000E+00       1          
          kp_q_inst:0_i:35_j:135   log                    factor                2.9999982405E+00      5.0000000000E-03      3.0000000000E+00       kp_q_inst:0           1.0000000000E+00      0.0000000000E+00       1          
          kp_q_inst:0_i:45_j:105   log                    factor                4.9999999501E-03      5.0000000000E-03      3.0000000000E+00       kp_q_inst:0           1.0000000000E+00      0.0000000000E+00       1          
          kp_q_inst:0_i:45_j:115   log                    factor                4.9999999501E-03      5.0000000000E-03      3.0000000000E+00       kp_q_inst:0           1.0000000000E+00      0.0000000000E+00       1          
          kp_q_inst:0_i:45_j:125   log                    factor                2.9999982405E+00      5.0000000000E-03      3.0000000000E+00       kp_q_inst:0           1.0000000000E+00      0.0000000000E+00       1          
          kp_q_inst:0_i:45_j:135   log                    factor                2.9999982405E+00      5.0000000000E-03      3.0000000000E+00       kp_q_inst:0           1.0000000000E+00      0.0000000000E+00       1          
           kp_q_inst:0_i:55_j:85   log                    factor                4.9999999501E-03      5.0000000000E-03      3.0000000000E+00       kp_q_inst:0           1.0000000000E+00      0.0000000000E+00       1          
           kp_q_inst:0_i:55_j:95   log                    factor                2.9999982405E+00      5.0000000000E-03      3.0000000000E+00       kp_q_inst:0           1.0000000000E+00      0.0000000000E+00       1          
          kp_q_inst:0_i:55_j:105   log                    factor                2.9999982405E+00      5.0000000000E-03      3.0000000000E+00       kp_q_inst:0           1.0000000000E+00      0.0000000000E+00       1          
          kp_q_inst:0_i:55_j:115   log                    factor                2.9999982405E+00      5.0000000000E-03      3.0000000000E+00       kp_q_inst:0           1.0000000000E+00      0.0000000000E+00       1          
          kp_q_inst:0_i:55_j:125   log                    factor                4.9999999501E-03      5.0000000000E-03      3.0000000000E+00       kp_q_inst:0           1.0000000000E+00      0.0000000000E+00       1          
          kp_q_inst:0_i:55_j:135   log                    factor                2.9999982405E+00      5.0000000000E-03      3.0000000000E+00       kp_q_inst:0           1.0000000000E+00      0.0000000000E+00       1          
           kp_q_inst:0_i:65_j:75   log                    factor                2.9999982405E+00      5.0000000000E-03      3.0000000000E+00       kp_q_inst:0           1.0000000000E+00      0.0000000000E+00       1          
           kp_q_inst:0_i:65_j:85   log                    factor                4.9999999501E-03      5.0000000000E-03      3.0000000000E+00       kp_q_inst:0           1.0000000000E+00      0.0000000000E+00       1          
           kp_q_inst:0_i:65_j:95   log                    factor                2.9999982405E+00      5.0000000000E-03      3.0000000000E+00       kp_q_inst:0           1.0000000000E+00      0.0000000000E+00       1          
          kp_q_inst:0_i:65_j:105   log                    factor                2.9999982405E+00      5.0000000000E-03      3.0000000000E+00       kp_q_inst:0           1.0000000000E+00      0.0000000000E+00       1          
          kp_q_inst:0_i:65_j:115   log                    factor                2.9999982405E+00      5.0000000000E-03      3.0000000000E+00       kp_q_inst:0           1.0000000000E+00      0.0000000000E+00       1          
          kp_q_inst:0_i:65_j:125   log                    factor                2.9999982405E+00      5.0000000000E-03      3.0000000000E+00       kp_q_inst:0           1.0000000000E+00      0.0000000000E+00       1          
          kp_q_inst:0_i:65_j:135   log                    factor                4.9999999501E-03      5.0000000000E-03      3.0000000000E+00       kp_q_inst:0           1.0000000000E+00      0.0000000000E+00       1          
           kp_q_inst:0_i:75_j:85   log                    factor                2.9999982405E+00      5.0000000000E-03      3.0000000000E+00       kp_q_inst:0           1.0000000000E+00      0.0000000000E+00       1          
           kp_q_inst:0_i:75_j:95   log                    factor                2.9999982405E+00      5.0000000000E-03      3.0000000000E+00       kp_q_inst:0           1.0000000000E+00      0.0000000000E+00       1          
          kp_q_inst:0_i:75_j:105   log                    factor                4.9999999501E-03      5.0000000000E-03      3.0000000000E+00       kp_q_inst:0           1.0000000000E+00      0.0000000000E+00       1          
          kp_q_inst:0_i:75_j:115   log                    factor                2.9999982405E+00      5.0000000000E-03      3.0000000000E+00       kp_q_inst:0           1.0000000000E+00      0.0000000000E+00       1          
          kp_q_inst:0_i:75_j:125   log                    factor                2.9999982405E+00      5.0000000000E-03      3.0000000000E+00       kp_q_inst:0           1.0000000000E+00      0.0000000000E+00       1          
          kp_q_inst:0_i:75_j:135   log                    factor                4.9999999501E-03      5.0000000000E-03      3.0000000000E+00       kp_q_inst:0           1.0000000000E+00      0.0000000000E+00       1          
           kp_q_inst:0_i:85_j:95   log                    factor                4.9999999501E-03      5.0000000000E-03      3.0000000000E+00       kp_q_inst:0           1.0000000000E+00      0.0000000000E+00       1          
          kp_q_inst:0_i:85_j:105   log                    factor                2.9999982405E+00      5.0000000000E-03      3.0000000000E+00       kp_q_inst:0           1.0000000000E+00      0.0000000000E+00       1          
          kp_q_inst:0_i:85_j:115   log                    factor                2.9999982405E+00      5.0000000000E-03      3.0000000000E+00       kp_q_inst:0           1.0000000000E+00      0.0000000000E+00       1          
          kp_q_inst:0_i:85_j:125   log                    factor                2.9999982405E+00      5.0000000000E-03      3.0000000000E+00       kp_q_inst:0           1.0000000000E+00      0.0000000000E+00       1          
          kp_q_inst:0_i:85_j:135   log                    factor                2.9999982405E+00      5.0000000000E-03      3.0000000000E+00       kp_q_inst:0           1.0000000000E+00      0.0000000000E+00       1          
           kp_q_inst:0_i:95_j:75   log                    factor                6.7176906394E-02      5.0000000000E-03      3.0000000000E+00       kp_q_inst:0           1.0000000000E+00      0.0000000000E+00       1          
           kp_q_inst:0_i:95_j:85   log                    factor                2.9999982405E+00      5.0000000000E-03      3.0000000000E+00       kp_q_inst:0           1.0000000000E+00      0.0000000000E+00       1          
           kp_q_inst:0_i:95_j:95   log                    factor                2.9999982405E+00      5.0000000000E-03      3.0000000000E+00       kp_q_inst:0           1.0000000000E+00      0.0000000000E+00       1          
          kp_q_inst:0_i:95_j:115   log                    factor                2.9999982405E+00      5.0000000000E-03      3.0000000000E+00       kp_q_inst:0           1.0000000000E+00      0.0000000000E+00       1          
          kp_q_inst:0_i:95_j:125   log                    factor                2.9999982405E+00      5.0000000000E-03      3.0000000000E+00       kp_q_inst:0           1.0000000000E+00      0.0000000000E+00       1          
          kp_q_inst:0_i:95_j:135   log                    factor                2.9999982405E+00      5.0000000000E-03      3.0000000000E+00       kp_q_inst:0           1.0000000000E+00      0.0000000000E+00       1          
          kp_q_inst:0_i:105_j:25   log                    factor                2.9999982405E+00      5.0000000000E-03      3.0000000000E+00       kp_q_inst:0           1.0000000000E+00      0.0000000000E+00       1          
          kp_q_inst:0_i:105_j:35   log                    factor                2.9999982405E+00      5.0000000000E-03      3.0000000000E+00       kp_q_inst:0           1.0000000000E+00      0.0000000000E+00       1          
          kp_q_inst:0_i:105_j:45   log                    factor                4.9999999501E-03      5.0000000000E-03      3.0000000000E+00       kp_q_inst:0           1.0000000000E+00      0.0000000000E+00       1          
          kp_q_inst:0_i:105_j:55   log                    factor                2.9999982405E+00      5.0000000000E-03      3.0000000000E+00       kp_q_inst:0           1.0000000000E+00      0.0000000000E+00       1          
          kp_q_inst:0_i:105_j:65   log                    factor                2.0707515733E-01      5.0000000000E-03      3.0000000000E+00       kp_q_inst:0           1.0000000000E+00      0.0000000000E+00       1          
          kp_q_inst:0_i:105_j:75   log                    factor                2.9999982405E+00      5.0000000000E-03      3.0000000000E+00       kp_q_inst:0           1.0000000000E+00      0.0000000000E+00       1          
         kp_q_inst:0_i:105_j:125   log                    factor                2.9999982405E+00      5.0000000000E-03      3.0000000000E+00       kp_q_inst:0           1.0000000000E+00      0.0000000000E+00       1          
         kp_q_inst:0_i:105_j:135   log                    factor                2.9999982405E+00      5.0000000000E-03      3.0000000000E+00       kp_q_inst:0           1.0000000000E+00      0.0000000000E+00       1          
           kp_q_inst:0_i:115_j:5   log                    factor                4.9999999501E-03      5.0000000000E-03      3.0000000000E+00       kp_q_inst:0           1.0000000000E+00      0.0000000000E+00       1          
          kp_q_inst:0_i:115_j:15   log                    factor                2.9999982405E+00      5.0000000000E-03      3.0000000000E+00       kp_q_inst:0           1.0000000000E+00      0.0000000000E+00       1          
          kp_q_inst:0_i:115_j:35   log                    factor                4.7260683690E-02      5.0000000000E-03      3.0000000000E+00       kp_q_inst:0           1.0000000000E+00      0.0000000000E+00       1          
          kp_q_inst:0_i:115_j:45   log                    factor                2.9999982405E+00      5.0000000000E-03      3.0000000000E+00       kp_q_inst:0           1.0000000000E+00      0.0000000000E+00       1          
          kp_q_inst:0_i:115_j:55   log                    factor                2.9999982405E+00      5.0000000000E-03      3.0000000000E+00       kp_q_inst:0           1.0000000000E+00      0.0000000000E+00       1          
          kp_q_inst:0_i:115_j:65   log                    factor                2.9999982405E+00      5.0000000000E-03      3.0000000000E+00       kp_q_inst:0           1.0000000000E+00      0.0000000000E+00       1          
          kp_q_inst:0_i:115_j:95   log                    factor                2.9999982405E+00      5.0000000000E-03      3.0000000000E+00       kp_q_inst:0           1.0000000000E+00      0.0000000000E+00       1          
         kp_q_inst:0_i:115_j:105   log                    factor                4.9999999501E-03      5.0000000000E-03      3.0000000000E+00       kp_q_inst:0           1.0000000000E+00      0.0000000000E+00       1          
         kp_q_inst:0_i:115_j:115   log                    factor                2.9999982405E+00      5.0000000000E-03      3.0000000000E+00       kp_q_inst:0           1.0000000000E+00      0.0000000000E+00       1          
         kp_q_inst:0_i:115_j:125   log                    factor                2.9999982405E+00      5.0000000000E-03      3.0000000000E+00       kp_q_inst:0           1.0000000000E+00      0.0000000000E+00       1          
         kp_q_inst:0_i:115_j:135   log                    factor                2.9999982405E+00      5.0000000000E-03      3.0000000000E+00       kp_q_inst:0           1.0000000000E+00      0.0000000000E+00       1          
          kp_q_inst:0_i:125_j:55   log                    factor                2.9999982405E+00      5.0000000000E-03      3.0000000000E+00       kp_q_inst:0           1.0000000000E+00      0.0000000000E+00       1          
          kp_q_inst:0_i:125_j:75   log                    factor                2.9999982405E+00      5.0000000000E-03      3.0000000000E+00       kp_q_inst:0           1.0000000000E+00      0.0000000000E+00       1          
         kp_q_inst:0_i:125_j:105   log                    factor                2.9999982405E+00      5.0000000000E-03      3.0000000000E+00       kp_q_inst:0           1.0000000000E+00      0.0000000000E+00       1          
         kp_q_inst:0_i:125_j:115   log                    factor                4.9999999501E-03      5.0000000000E-03      3.0000000000E+00       kp_q_inst:0           1.0000000000E+00      0.0000000000E+00       1          
         kp_q_inst:0_i:125_j:125   log                    factor                4.9999999501E-03      5.0000000000E-03      3.0000000000E+00       kp_q_inst:0           1.0000000000E+00      0.0000000000E+00       1          
         kp_q_inst:0_i:125_j:135   log                    factor                2.9999982405E+00      5.0000000000E-03      3.0000000000E+00       kp_q_inst:0           1.0000000000E+00      0.0000000000E+00       1          
         kp_q_inst:0_i:135_j:105   log                    factor                2.9999982405E+00      5.0000000000E-03      3.0000000000E+00       kp_q_inst:0           1.0000000000E+00      0.0000000000E+00       1          
         kp_q_inst:0_i:135_j:115   log                    factor                2.9999982405E+00      5.0000000000E-03      3.0000000000E+00       kp_q_inst:0           1.0000000000E+00      0.0000000000E+00       1          
         kp_q_inst:0_i:135_j:125   log                    factor                2.9999982405E+00      5.0000000000E-03      3.0000000000E+00       kp_q_inst:0           1.0000000000E+00      0.0000000000E+00       1          
         kp_q_inst:0_i:135_j:135   log                    factor                2.9999982405E+00      5.0000000000E-03      3.0000000000E+00       kp_q_inst:0           1.0000000000E+00      0.0000000000E+00       1          
          kp_q_inst:0_i:145_j:95   log                    factor                4.9999999501E-03      5.0000000000E-03      3.0000000000E+00       kp_q_inst:0           1.0000000000E+00      0.0000000000E+00       1          
         kp_q_inst:0_i:145_j:105   log                    factor                2.9999982405E+00      5.0000000000E-03      3.0000000000E+00       kp_q_inst:0           1.0000000000E+00      0.0000000000E+00       1          
         kp_q_inst:0_i:145_j:115   log                    factor                4.9999999501E-03      5.0000000000E-03      3.0000000000E+00       kp_q_inst:0           1.0000000000E+00      0.0000000000E+00       1          
         kp_q_inst:0_i:145_j:125   log                    factor                4.9999999501E-03      5.0000000000E-03      3.0000000000E+00       kp_q_inst:0           1.0000000000E+00      0.0000000000E+00       1          
         kp_q_inst:0_i:145_j:135   log                    factor                4.9999999501E-03      5.0000000000E-03      3.0000000000E+00       kp_q_inst:0           1.0000000000E+00      0.0000000000E+00       1          
          kp_q_inst:0_i:155_j:85   log                    factor                4.9999999501E-03      5.0000000000E-03      3.0000000000E+00       kp_q_inst:0           1.0000000000E+00      0.0000000000E+00       1          
          kp_q_inst:0_i:155_j:95   log                    factor                4.9999999501E-03      5.0000000000E-03      3.0000000000E+00       kp_q_inst:0           1.0000000000E+00      0.0000000000E+00       1          
         kp_q_inst:0_i:155_j:105   log                    factor                4.9999999501E-03      5.0000000000E-03      3.0000000000E+00       kp_q_inst:0           1.0000000000E+00      0.0000000000E+00       1          
         kp_q_inst:0_i:155_j:115   log                    factor                4.9999999501E-03      5.0000000000E-03      3.0000000000E+00       kp_q_inst:0           1.0000000000E+00      0.0000000000E+00       1          
         kp_q_inst:0_i:155_j:125   log                    factor                2.9999982405E+00      5.0000000000E-03      3.0000000000E+00       kp_q_inst:0           1.0000000000E+00      0.0000000000E+00       1          
         kp_q_inst:0_i:155_j:135   log                    factor                2.9999982405E+00      5.0000000000E-03      3.0000000000E+00       kp_q_inst:0           1.0000000000E+00      0.0000000000E+00       1          
          kp_q_inst:0_i:165_j:65   log                    factor                4.9999999501E-03      5.0000000000E-03      3.0000000000E+00       kp_q_inst:0           1.0000000000E+00      0.0000000000E+00       1          
          kp_q_inst:0_i:165_j:95   log                    factor                2.9999982405E+00      5.0000000000E-03      3.0000000000E+00       kp_q_inst:0           1.0000000000E+00      0.0000000000E+00       1          
          kp_q_inst:0_i:175_j:45   log                    factor                2.9999982405E+00      5.0000000000E-03      3.0000000000E+00       kp_q_inst:0           1.0000000000E+00      0.0000000000E+00       1          
          kp_q_inst:0_i:175_j:55   log                    factor                4.9999999501E-03      5.0000000000E-03      3.0000000000E+00       kp_q_inst:0           1.0000000000E+00      0.0000000000E+00       1          
          kp_q_inst:0_i:175_j:65   log                    factor                2.9999982405E+00      5.0000000000E-03      3.0000000000E+00       kp_q_inst:0           1.0000000000E+00      0.0000000000E+00       1          
            c_agly                 log                    factor                7.0841867282E-03      1.0000000000E-03      1.0000000000E-02       cond                  1.0000000000E+00      0.0000000000E+00       1          
            c_bol                  log                    factor                1.0000000000E-02      1.0000000000E-03      1.0000000000E-02       cond                  1.0000000000E+00      0.0000000000E+00       1          
            c_cant                 log                    factor                1.0000000000E-02      1.0000000000E-03      1.0000000000E-02       cond                  1.0000000000E+00      0.0000000000E+00       1          
            c_rea                  log                    factor                1.0000000000E-03      1.0000000000E-03      1.0000000000E-02       cond                  1.0000000000E+00      0.0000000000E+00       1          
            c_tech                 log                    factor                1.0000000000E-02      1.0000000000E-03      1.0000000000E-02       cond                  1.0000000000E+00      0.0000000000E+00       1          
            c_tet                  log                    factor                1.0000000000E-02      1.0000000000E-03      1.0000000000E-02       cond                  1.0000000000E+00      0.0000000000E+00       1          
         kp_pc_inst:0_i:15_j:125   log                    factor                4.0000000799E+00      1.0000000000E-03      4.0000000000E+00       kp_pc_inst:0          1.0000000000E+00      0.0000000000E+00       1          
         kp_pc_inst:0_i:15_j:135   log                    factor                4.0000000799E+00      1.0000000000E-03      4.0000000000E+00       kp_pc_inst:0          1.0000000000E+00      0.0000000000E+00       1          
         kp_pc_inst:0_i:25_j:135   log                    factor                1.0000000000E-03      1.0000000000E-03      4.0000000000E+00       kp_pc_inst:0          1.0000000000E+00      0.0000000000E+00       1          
         kp_pc_inst:0_i:35_j:125   log                    factor                4.0000000799E+00      1.0000000000E-03      4.0000000000E+00       kp_pc_inst:0          1.0000000000E+00      0.0000000000E+00       1          
         kp_pc_inst:0_i:35_j:135   log                    factor                1.0000000000E-03      1.0000000000E-03      4.0000000000E+00       kp_pc_inst:0          1.0000000000E+00      0.0000000000E+00       1          
         kp_pc_inst:0_i:45_j:105   log                    factor                1.0000000000E-03      1.0000000000E-03      4.0000000000E+00       kp_pc_inst:0          1.0000000000E+00      0.0000000000E+00       1          
         kp_pc_inst:0_i:45_j:115   log                    factor                1.0000000000E-03      1.0000000000E-03      4.0000000000E+00       kp_pc_inst:0          1.0000000000E+00      0.0000000000E+00       1          
         kp_pc_inst:0_i:45_j:125   log                    factor                4.0000000799E+00      1.0000000000E-03      4.0000000000E+00       kp_pc_inst:0          1.0000000000E+00      0.0000000000E+00       1          
         kp_pc_inst:0_i:45_j:135   log                    factor                4.0000000799E+00      1.0000000000E-03      4.0000000000E+00       kp_pc_inst:0          1.0000000000E+00      0.0000000000E+00       1          
          kp_pc_inst:0_i:55_j:95   log                    factor                4.0000000799E+00      1.0000000000E-03      4.0000000000E+00       kp_pc_inst:0          1.0000000000E+00      0.0000000000E+00       1          
         kp_pc_inst:0_i:55_j:105   log                    factor                4.0000000799E+00      1.0000000000E-03      4.0000000000E+00       kp_pc_inst:0          1.0000000000E+00      0.0000000000E+00       1          
         kp_pc_inst:0_i:55_j:115   log                    factor                1.0000000000E-03      1.0000000000E-03      4.0000000000E+00       kp_pc_inst:0          1.0000000000E+00      0.0000000000E+00       1          
         kp_pc_inst:0_i:55_j:125   log                    factor                4.0000000799E+00      1.0000000000E-03      4.0000000000E+00       kp_pc_inst:0          1.0000000000E+00      0.0000000000E+00       1          
         kp_pc_inst:0_i:55_j:135   log                    factor                1.0000000000E-03      1.0000000000E-03      4.0000000000E+00       kp_pc_inst:0          1.0000000000E+00      0.0000000000E+00       1          
          kp_pc_inst:0_i:65_j:75   log                    factor                4.0000000799E+00      1.0000000000E-03      4.0000000000E+00       kp_pc_inst:0          1.0000000000E+00      0.0000000000E+00       1          
          kp_pc_inst:0_i:65_j:85   log                    factor                1.2719586702E+00      1.0000000000E-03      4.0000000000E+00       kp_pc_inst:0          1.0000000000E+00      0.0000000000E+00       1          
          kp_pc_inst:0_i:65_j:95   log                    factor                1.5842072629E+00      1.0000000000E-03      4.0000000000E+00       kp_pc_inst:0          1.0000000000E+00      0.0000000000E+00       1          
         kp_pc_inst:0_i:65_j:105   log                    factor                4.0000000799E+00      1.0000000000E-03      4.0000000000E+00       kp_pc_inst:0          1.0000000000E+00      0.0000000000E+00       1          
         kp_pc_inst:0_i:65_j:115   log                    factor                1.0000000000E-03      1.0000000000E-03      4.0000000000E+00       kp_pc_inst:0          1.0000000000E+00      0.0000000000E+00       1          
         kp_pc_inst:0_i:65_j:125   log                    factor                4.0000000799E+00      1.0000000000E-03      4.0000000000E+00       kp_pc_inst:0          1.0000000000E+00      0.0000000000E+00       1          
         kp_pc_inst:0_i:65_j:135   log                    factor                4.0000000799E+00      1.0000000000E-03      4.0000000000E+00       kp_pc_inst:0          1.0000000000E+00      0.0000000000E+00       1          
          kp_pc_inst:0_i:75_j:75   log                    factor                8.4417794192E-01      1.0000000000E-03      4.0000000000E+00       kp_pc_inst:0          1.0000000000E+00      0.0000000000E+00       1          
          kp_pc_inst:0_i:75_j:85   log                    factor                4.0000000799E+00      1.0000000000E-03      4.0000000000E+00       kp_pc_inst:0          1.0000000000E+00      0.0000000000E+00       1          
          kp_pc_inst:0_i:75_j:95   log                    factor                1.0000000000E-03      1.0000000000E-03      4.0000000000E+00       kp_pc_inst:0          1.0000000000E+00      0.0000000000E+00       1          
         kp_pc_inst:0_i:75_j:105   log                    factor                1.0000000000E-03      1.0000000000E-03      4.0000000000E+00       kp_pc_inst:0          1.0000000000E+00      0.0000000000E+00       1          
         kp_pc_inst:0_i:75_j:115   log                    factor                4.0000000799E+00      1.0000000000E-03      4.0000000000E+00       kp_pc_inst:0          1.0000000000E+00      0.0000000000E+00       1          
         kp_pc_inst:0_i:75_j:125   log                    factor                4.0000000799E+00      1.0000000000E-03      4.0000000000E+00       kp_pc_inst:0          1.0000000000E+00      0.0000000000E+00       1          
         kp_pc_inst:0_i:75_j:135   log                    factor                4.0000000799E+00      1.0000000000E-03      4.0000000000E+00       kp_pc_inst:0          1.0000000000E+00      0.0000000000E+00       1          
          kp_pc_inst:0_i:85_j:65   log                    factor                4.0000000799E+00      1.0000000000E-03      4.0000000000E+00       kp_pc_inst:0          1.0000000000E+00      0.0000000000E+00       1          
          kp_pc_inst:0_i:85_j:75   log                    factor                1.0000000000E-03      1.0000000000E-03      4.0000000000E+00       kp_pc_inst:0          1.0000000000E+00      0.0000000000E+00       1          
          kp_pc_inst:0_i:85_j:85   log                    factor                1.0000000000E-03      1.0000000000E-03      4.0000000000E+00       kp_pc_inst:0          1.0000000000E+00      0.0000000000E+00       1          
          kp_pc_inst:0_i:85_j:95   log                    factor                4.0000000799E+00      1.0000000000E-03      4.0000000000E+00       kp_pc_inst:0          1.0000000000E+00      0.0000000000E+00       1          
         kp_pc_inst:0_i:85_j:105   log                    factor                4.7311095025E-01      1.0000000000E-03      4.0000000000E+00       kp_pc_inst:0          1.0000000000E+00      0.0000000000E+00       1          
         kp_pc_inst:0_i:85_j:115   log                    factor                4.0000000799E+00      1.0000000000E-03      4.0000000000E+00       kp_pc_inst:0          1.0000000000E+00      0.0000000000E+00       1          
         kp_pc_inst:0_i:85_j:125   log                    factor                1.6720913492E-02      1.0000000000E-03      4.0000000000E+00       kp_pc_inst:0          1.0000000000E+00      0.0000000000E+00       1          
         kp_pc_inst:0_i:85_j:135   log                    factor                4.0000000799E+00      1.0000000000E-03      4.0000000000E+00       kp_pc_inst:0          1.0000000000E+00      0.0000000000E+00       1          