BEGIN options
  SAVE_FLOWS
END options

BEGIN dimensions
  MAXBOUND  62
END dimensions

BEGIN period  1
  1 44 55      27.78656774
  1 44 56      27.12854075
  1 44 57      26.05533827
  1 45 57      25.34841855
  1 45 58      24.86258000
  1 46 58      23.97020116
  1 46 59      23.04281349
  1 46 60      22.06141685
  1 46 61      21.28957040
  1 45 61      20.83572038
  1 45 62      20.29999142
  1 46 62      19.81005057
  1 46 63      19.05204956
  1 46 64      17.96599975
  1 46 65      17.00793377
  1 46 66      16.11082260
  1 46 67      15.22040569
  1 46 68      14.33215913
  1 46 69      12.72391430
  1 46 70      12.31152837
  1 47 70      12.00598158
  1 47 71      11.48366580
  1 48 71      11.00024749
  1 48 72      10.72516659
  1 49 71      10.52237807
  1 49 72      10.12967992
  1 49 73       9.51971929
  1 49 74       9.14675307
  1 50 74       8.86018664
  1 50 75       8.39804945
  1 50 76       7.80269444
  1 50 77       7.44001163
  1 51 77       7.04702431
  1 51 78       6.63768488
  1 52 78       6.34780114
  1 52 79       5.83317228
  1 52 80       4.87770990
  1 52 81       4.63490432
  1 52 82       4.41371334
  1 51 82       4.25586944
  1 51 83       4.05552085
  1 51 84       3.90664980
  1 50 84       3.76495033
  1 50 85       3.52699990
  1 49 85       3.38921045
  1 49 86       3.21647127
  1 49 87       2.95579370
  1 49 88       2.78505410
  1 48 88       2.66103514
  1 48 89       2.45772765
  1 48 90       2.20419967
  1 48 91       2.00463519
  1 47 91       1.87575348
  1 47 92       1.69010745
  1 47 93       1.43799432
  1 47 94       1.19434521
  1 47 95       1.00007515
  1 46 95       0.83434671
  1 46 96       0.68120532
  1 45 96       0.49179587
  1 45 97       0.29172141
  1 44 97       0.16378043
END period  1

