BEGIN options
  SAVE_FLOWS
END options

BEGIN dimensions
  MAXBOUND  62
END dimensions

BEGIN period  1
  1 44 55      22.84348301
  1 44 56      22.36092988
  1 44 57      21.57391473
  1 45 57      21.05550694
  1 45 58      20.69922533
  1 46 58      20.04481418
  1 46 59      19.36472989
  1 46 60      18.64503902
  1 46 61      18.07901829
  1 45 61      17.74619495
  1 45 62      17.35332704
  1 46 62      16.99403709
  1 46 63      16.43816968
  1 46 64      15.64173315
  1 46 65      14.93915143
  1 46 66      14.28126990
  1 46 67      13.62829750
  1 46 68      12.97691670
  1 46 69      11.72391430
  1 46 70      11.31152837
  1 47 70      11.00598158
  1 47 71      10.48366580
  1 48 71      10.00024749
  1 48 72       9.72516659
  1 49 71       9.52237807
  1 49 72       9.12967992
  1 49 73       8.51971929
  1 49 74       8.14675307
  1 50 74       7.86018664
  1 50 75       7.39804945
  1 50 76       6.80269444
  1 50 77       6.44001163
  1 51 77       6.04702431
  1 51 78       5.63768488
  1 52 78       5.34780114
  1 52 79       4.83317228
  1 52 80       3.90266706
  1 52 81       3.70941365
  1 52 82       3.53336368
  1 51 82       3.40773282
  1 51 83       3.24827170
  1 51 84       3.12978249
  1 50 84       3.01700128
  1 50 85       2.82761216
  1 49 85       2.71794301
  1 49 86       2.58045672
  1 49 87       2.37297866
  1 49 88       2.23708388
  1 48 88       2.13837491
  1 48 89       1.97655874
  1 48 90       1.77477116
  1 48 91       1.61593413
  1 47 91       1.51335481
  1 47 92       1.36559573
  1 47 93       1.16493425
  1 47 94       0.97100945
  1 47 95       0.81638634
  1 46 95       0.68448003
  1 46 96       0.56259199
  1 45 96       0.41183753
  1 45 97       0.25259459
  1 44 97       0.15076402
END period  1

