BEGIN options
  SAVE_FLOWS
END options

BEGIN dimensions
  MAXBOUND  36
END dimensions

BEGIN period  1
  1 80 5     177.30092121
  1 80 6     176.26258901
  1 79 6     172.22476047
  1 79 7     170.58838010
  1 79 8     166.53218240
  1 79 9     163.55886405
  1 78 9     161.91994350
  1 78 10     156.75976458
  1 78 11     155.38190962
  1 77 11     151.74447062
  1 77 12     150.07881000
  1 76 12     147.05603954
  1 76 13     144.94531911
  1 75 13     142.57661062
  1 75 14     140.64794344
  1 75 15     137.52154105
  1 74 15     136.27947227
  1 74 16     132.21631959
  1 73 16     131.35363885
  1 73 17     130.45355568
  1 73 18     129.35587903
  1 72 18     126.91571297
  1 72 19     122.15525196
  1 72 20     120.47687829
  1 72 21     116.87362878
  1 72 22     114.61918656
  1 72 23     112.82225417
  1 71 23     111.99116364
  1 71 24     110.51312525
  1 71 25     106.75918653
  1 71 26     102.21818839
  1 71 27     100.91480429
  1 70 27     100.12420782
  1 70 28      96.71497064
  1 70 29      95.31889907
  1 69 29      91.73654130
END period  1

