BEGIN options
  SAVE_FLOWS
END options

BEGIN dimensions
  MAXBOUND  36
END dimensions

BEGIN period  1
  1 80 5     178.30092121
  1 80 6     177.26258901
  1 79 6     173.22476047
  1 79 7     171.58838010
  1 79 8     167.53218240
  1 79 9     164.55886405
  1 78 9     162.91994350
  1 78 10     157.75976458
  1 78 11     156.38190962
  1 77 11     152.74447062
  1 77 12     151.07881000
  1 76 12     148.05603954
  1 76 13     145.94531911
  1 75 13     143.57661062
  1 75 14     141.64794344
  1 75 15     138.52154105
  1 74 15     137.27947227
  1 74 16     133.21631959
  1 73 16     132.35363885
  1 73 17     131.45355568
  1 73 18     130.35587903
  1 72 18     127.91571297
  1 72 19     123.15525196
  1 72 20     121.47687829
  1 72 21     117.87362878
  1 72 22     115.61918656
  1 72 23     113.82225417
  1 71 23     112.99116364
  1 71 24     111.51312525
  1 71 25     107.75918653
  1 71 26     103.21818839
  1 71 27     101.91480429
  1 70 27     101.12420782
  1 70 28      97.71497064
  1 70 29      96.31889907
  1 69 29      92.73654130
END period  1

