BEGIN options
  SAVE_FLOWS
END options

BEGIN dimensions
  MAXBOUND  52
END dimensions

BEGIN period  1
  1 94 36     135.13483655
  1 94 37     135.53599699
  1 93 37     135.55760487
  1 93 38     129.96501654
  1 93 39     129.46896674
  1 94 39     128.04168542
  1 94 40     122.75664107
  1 94 41     121.11463613
  1 93 41     119.45767961
  1 93 42     113.95740469
  1 93 43     111.23959728
  1 93 44     109.84075812
  1 94 44     109.42155126
  1 94 45     109.28220252
  1 93 45     107.39870572
  1 93 46     105.32935055
  1 92 46     104.01528646
  1 92 47     100.80326815
  1 91 47     100.70717546
  1 91 48     100.64844167
  1 92 48      99.61528210
  1 91 49      96.83378997
  1 92 49      97.99162018
  1 91 50      88.05732142
  1 90 50      86.43241306
  1 90 51      85.60139769
  1 91 51      81.77333903
  1 91 52      81.43335127
  1 90 52      79.83785251
  1 90 53      76.61123133
  1 90 54      74.76656729
  1 90 55      73.60274894
  1 89 55      71.45255107
  1 89 54      71.17468772
  1 89 56      70.08829150
  1 88 56      66.40631877
  1 88 55      67.88750691
  1 87 56      63.73877125
  1 88 57      62.81710759
  1 88 58      61.47419683
  1 87 58      61.41331911
  1 86 58      61.55889052
  1 86 59      61.62106199
  1 87 59      60.79364344
  1 87 60      59.61102442
  1 86 60      53.69188211
  1 86 61      51.29778440
  1 85 61      48.89533709
  1 85 62      45.78695905
  1 85 63      44.00000000
  1 84 63      44.00000000
  1 83 64      22.09658095
END period  1

