BEGIN options
  SAVE_FLOWS
END options

BEGIN dimensions
  MAXBOUND  52
END dimensions

BEGIN period  1
  1 94 36     135.07287105
  1 94 37     135.28967416
  1 93 37     134.55760487
  1 93 38     128.96501654
  1 93 39     128.46896674
  1 94 39     127.04168542
  1 94 40     121.75664107
  1 94 41     120.11463613
  1 93 41     118.45767961
  1 93 42     112.95740469
  1 93 43     110.23959728
  1 93 44     108.84075812
  1 94 44     108.42155126
  1 94 45     108.28220252
  1 93 45     106.39870572
  1 93 46     104.32935055
  1 92 46     103.01528646
  1 92 47      99.80326815
  1 91 47      99.70717546
  1 91 48      99.64844167
  1 92 48      98.61528210
  1 91 49      95.83378997
  1 92 49      96.99162018
  1 91 50      87.05732142
  1 90 50      85.43241306
  1 90 51      84.60139769
  1 91 51      80.77333903
  1 91 52      80.43335127
  1 90 52      78.83785251
  1 90 53      75.61123133
  1 90 54      73.76656729
  1 90 55      72.60274894
  1 89 55      70.45255107
  1 89 54      70.17468772
  1 89 56      69.08829150
  1 88 56      65.40631877
  1 88 55      66.88750691
  1 87 56      62.73877125
  1 88 57      61.81710759
  1 88 58      60.47419683
  1 87 58      60.41331911
  1 86 58      60.55889052
  1 86 59      60.62106199
  1 87 59      59.79364344
  1 87 60      58.61102442
  1 86 60      52.69188211
  1 86 61      50.29778440
  1 85 61      47.89533709
  1 85 62      44.78695905
  1 85 63      43.00000000
  1 84 63      43.00000000
  1 83 64      21.53111614
END period  1

