BEGIN options
END options

BEGIN dimensions
  MAXBOUND  103
END dimensions

BEGIN period  1
  1 83 85      -0.00648782
  1 98 86      -0.04646436
  1 112 94      -0.04431761
  1 91 69      -0.00551433
  1 92 67      -0.00419521
  1 67 53      -0.00813356
  1 57 75      -0.00910705
  1 57 75      -0.01102549
  1 79 5      -0.01124112
  1 72 77      -0.02396626
  1 71 78      -0.01406012
  1 65 90      -0.00750888
  1 64 91      -0.00246068
  1 71 96      -0.00616121
  1 65 95      -0.01513508
  1 70 89      -0.01472603
  1 71 92      -0.00749619
  1 81 56      -0.01078767
  1 50 80      -0.00771182
  1 87 79      -0.00495941
  1 66 33      -0.00334855
  1 96 85      -0.01416159
  1 97 81      -0.01440576
  1 97 81      -0.01087646
  1 95 83      -0.00876142
  1 94 76      -0.00896436
  1 46 56      -0.00636733
  1 99 43      -0.00740741
  1 72 11      -0.00991882
  1 75 11      -0.01359082
  1 93 90      -0.01250317
  1 95 91      -0.01511289
  1 36 97  -1.26839168E-04
  1 73 48      -0.02446728
  1 69 24      -0.01113648
  1 67 26      -0.06351788
  1 67 26      -0.02671550
  1 92 77      -0.00670028
  1 93 74      -0.01872780
  1 92 73      -0.01459919
  1 91 72      -0.01820459
  1 89 72      -0.01423770
  1 69 21      -0.00523212
  1 100 76  -5.64434297E-04
  1 68 61      -0.01619736
  1 66 70      -0.00989663
  1 62 68      -0.00919584
  1 72 70      -0.00489916
  1 52 59      -0.00315830
  1 68 45      -0.02978184
  1 64 48      -0.00895167
  1 68 41      -0.00722666
  1 57 71      -0.01864219
  1 84 62      -0.00491819
  1 87 52      -0.00528285
  1 50 65      -0.00726788
  1 51 63      -0.00193113
  1 45 63      -0.01621639
  1 38 69      -0.00228311
  1 74 87      -0.00547945
  1 74 87      -0.00537481
  1 78 78      -0.01092402
  1 30 73  -3.51978691E-04
  1 88 93      -0.01009323
  1 89 88      -0.03848935
  1 63 55      -0.02497146
  1 63 58      -0.00793379
  1 66 62      -0.01805873
  1 62 55      -0.00200406
  1 74 32      -0.09195840
  1 69 31      -0.01979959
  1 69 31      -0.03000698
  1 70 33      -0.00282217
  1 73 32      -0.01492580
  1 73 32      -0.02101408
  1 73 32      -0.04545599
  1 73 36      -0.00375444
  1 43 83      -0.00440132
  1 42 84      -0.01429795
  1 40 87      -0.01399670
  1 40 88      -0.00509576
  1 45 82      -0.02236175
  1 120 47      -0.00947806
  1 41 90      -0.01402841
  1 41 90      -0.00246385
  1 42 87      -0.01660008
  1 45 90      -0.00468037
  1 41 91      -0.01491946
  1 60 93      -0.00316147
  1 58 93      -0.00707763
  1 59 93      -0.00874873
  1 94 42      -0.00191527
  1 95 36      -0.01204021
  1 83 80      -0.00235921
  1 82 37      -0.01718037
  1 85 38      -0.02500951
  1 51 89      -0.00742643
  1 49 95      -0.00437278
  1 76 56      -0.01532851
  1 91 48      -0.00696030
  1 58 87      -0.00655441
  1 84 72      -0.00965880
  1 65 48      -0.00361809
END period  1

