BEGIN options
  SAVE_FLOWS
  SAVE_SPECIFIC_DISCHARGE
END options

BEGIN griddata
  icelltype
    CONSTANT  0
  k
    INTERNAL  FACTOR  1.0
    1.00000000E-04  1.00000000E-04  1.00000000E-04  1.00000000E-04  1.00000000E-04  1.00000000E-04  1.00000000E-04  1.00000000E-04  1.00000000E-04  1.00000000E-04  1.00000000E-04  1.00000000E-04  1.00000000E-04  1.00000000E-04  1.00000000E-04  1.00000000E-04  1.00000000E-04  1.00000000E-04  1.00000000E-04  1.00000000E-04
    1.00000000E-04  1.00000000E-04  1.00000000E-04  1.00000000E-04  1.00000000E-04  1.00000000E-04  1.00000000E-04  1.00000000E-04  1.00000000E-04  1.00000000E-04  1.00000000E-04  1.00000000E-04  1.00000000E-04  1.00000000E-04  1.00000000E-04  1.00000000E-04  1.00000000E-04  1.00000000E-04  1.00000000E-04  1.00000000E-04
    1.00000000E-04  1.00000000E-04  1.00000000E-04  1.00000000E-04  1.00000000E-04  1.00000000E-04  1.00000000E-04  1.00000000E-04  1.00000000E-04  1.00000000E-04  1.00000000E-04  1.00000000E-04  1.00000000E-04  1.00000000E-04  1.00000000E-04  1.00000000E-04  1.00000000E-04  1.00000000E-04  1.00000000E-04  1.00000000E-04
    1.00000000E-04  1.00000000E-04  1.00000000E-04  1.00000000E-04  1.00000000E-04  1.00000000E-04  1.00000000E-04  1.00000000E-04  1.00000000E-04  1.00000000E-04  1.00000000E-04  1.00000000E-04  1.00000000E-04  1.00000000E-04  1.00000000E-04  1.00000000E-04  1.00000000E-04  1.00000000E-04  1.00000000E-04  1.00000000E-04
    1.00000000E-04  1.00000000E-04  1.00000000E-04  1.00000000E-04  1.00000000E-04  1.00000000E-04  1.00000000E-04  1.00000000E-04  1.00000000E-04  1.00000000E-04  1.00000000E-04  1.00000000E-04  1.00000000E-04  3.64726167E-08  8.13918271E-08  4.96443147E-08  1.00000000E-04  1.00000000E-04  1.00000000E-04  1.00000000E-04
    1.00000000E-04  1.00000000E-04  1.00000000E-04
    1.00000000E-04  1.00000000E-04  1.00000000E-04  1.00000000E-04  1.00000000E-04  1.00000000E-04  1.00000000E-04  1.00000000E-04  1.00000000E-04  1.00000000E-04  1.00000000E-04  1.00000000E-04  1.00000000E-04  1.00000000E-04  1.00000000E-04  1.00000000E-04  1.00000000E-04  1.00000000E-04  1.00000000E-04  1.00000000E-04
    1.00000000E-04  1.00000000E-04  1.00000000E-04  1.00000000E-04  1.00000000E-04  1.00000000E-04  1.00000000E-04  1.00000000E-04  1.00000000E-04  1.00000000E-04  1.00000000E-04  1.00000000E-04  1.00000000E-04  1.00000000E-04  1.00000000E-04  1.00000000E-04  1.00000000E-04  1.00000000E-04  1.00000000E-04  1.00000000E-04
    1.00000000E-04  1.00000000E-04  1.00000000E-04  1.00000000E-04  1.00000000E-04  1.00000000E-04  1.00000000E-04  1.00000000E-04  1.00000000E-04  1.00000000E-04  1.00000000E-04  1.00000000E-04  1.00000000E-04  1.00000000E-04  1.00000000E-04  1.00000000E-04  1.00000000E-04  1.00000000E-04  1.00000000E-04  1.00000000E-04
    1.00000000E-04  1.00000000E-04  1.00000000E-04  1.00000000E-04  1.00000000E-04  1.00000000E-04  1.00000000E-04  1.00000000E-04  1.00000000E-04  1.00000000E-04  1.00000000E-04  1.00000000E-04  1.00000000E-04  1.00000000E-04  1.00000000E-04  1.00000000E-04  1.00000000E-04  1.00000000E-04  1.00000000E-04  1.00000000E-04
    1.00000000E-04  1.00000000E-04  1.00000000E-04  1.00000000E-04  1.00000000E-04  1.00000000E-04  1.00000000E-04  1.00000000E-04  1.00000000E-04  1.00000000E-04  1.00000000E-04  1.00000000E-04  1.00000000E-04  4.97239475E-08  3.20367329E-06  3.52185976E-08  2.56217757E-06  6.45506794E-06  1.00000000E-04  1.00000000E-04
    1.00000000E-04  1.00000000E-04  1.00000000E-04
    1.00000000E-04  1.00000000E-04  1.00000000E-04  1.00000000E-04  1.00000000E-04  1.00000000E-04  1.00000000E-04  1.00000000E-04  1.00000000E-04  1.00000000E-04  1.00000000E-04  1.00000000E-04  1.00000000E-04  1.00000000E-04  1.00000000E-04  1.00000000E-04  1.00000000E-04  1.00000000E-04  1.00000000E-04  1.00000000E-04
    1.00000000E-04  1.00000000E-04  1.00000000E-04  1.00000000E-04  1.00000000E-04  1.00000000E-04  1.00000000E-04  1.00000000E-04  1.00000000E-04  1.00000000E-04  1.00000000E-04  1.00000000E-04  1.00000000E-04  1.00000000E-04  1.00000000E-04  1.00000000E-04  1.00000000E-04  1.00000000E-04  1.00000000E-04  1.00000000E-04
    1.00000000E-04  1.00000000E-04  1.00000000E-04  1.00000000E-04  1.00000000E-04  1.00000000E-04  1.00000000E-04  1.00000000E-04  1.00000000E-04  1.00000000E-04  1.00000000E-04  1.00000000E-04  1.00000000E-04  1.00000000E-04  1.00000000E-04  1.00000000E-04  1.00000000E-04  1.00000000E-04  1.00000000E-04  1.00000000E-04
    1.00000000E-04  1.00000000E-04  1.00000000E-04  1.00000000E-04  1.00000000E-04  1.00000000E-04  1.00000000E-04  1.00000000E-04  1.00000000E-04  1.00000000E-04  1.00000000E-04  1.00000000E-04  1.00000000E-04  1.00000000E-04  1.00000000E-04  1.00000000E-04  1.00000000E-04  1.00000000E-04  1.00000000E-04  1.00000000E-04
    1.00000000E-04  1.00000000E-04  1.00000000E-04  1.00000000E-04  1.00000000E-04  1.00000000E-04  1.00000000E-04  1.00000000E-04  1.00000000E-04  1.00000000E-04  1.00000000E-04  1.00000000E-04  1.00000000E-04  4.92736324E-07  3.31859149E-06  1.38328415E-06  6.08130473E-07  4.75436303E-06  6.42682226E-07  8.13601262E-08
    1.00000000E-04  1.00000000E-04  1.00000000E-04
    1.00000000E-04  1.00000000E-04  1.00000000E-04  1.00000000E-04  1.00000000E-04  1.00000000E-04  1.00000000E-04  1.00000000E-04  1.00000000E-04  1.00000000E-04  1.00000000E-04  1.00000000E-04  1.00000000E-04  1.00000000E-04  1.00000000E-04  1.00000000E-04  1.00000000E-04  1.00000000E-04  1.00000000E-04  1.00000000E-04
    1.00000000E-04  1.00000000E-04  1.00000000E-04  1.00000000E-04  1.00000000E-04  1.00000000E-04  1.00000000E-04  1.00000000E-04  1.00000000E-04  1.00000000E-04  1.00000000E-04  1.00000000E-04  1.00000000E-04  1.00000000E-04  1.00000000E-04  1.00000000E-04  1.00000000E-04  1.00000000E-04  1.00000000E-04  1.00000000E-04
    1.00000000E-04  1.00000000E-04  1.00000000E-04  1.00000000E-04  1.00000000E-04  1.00000000E-04  1.00000000E-04  1.00000000E-04  1.00000000E-04  1.00000000E-04  1.00000000E-04  1.00000000E-04  1.00000000E-04  1.00000000E-04  1.00000000E-04  1.00000000E-04  1.00000000E-04  1.00000000E-04  1.00000000E-04  1.00000000E-04
    1.00000000E-04  1.00000000E-04  1.00000000E-04  1.00000000E-04  1.00000000E-04  1.00000000E-04  1.00000000E-04  1.00000000E-04  1.00000000E-04  1.00000000E-04  1.00000000E-04  1.00000000E-04  1.00000000E-04  1.00000000E-04  1.00000000E-04  1.00000000E-04  1.00000000E-04  1.00000000E-04  1.00000000E-04  1.00000000E-04
    1.00000000E-04  1.00000000E-04  1.00000000E-04  1.00000000E-04  1.00000000E-04  1.00000000E-04  1.00000000E-04  1.00000000E-04  1.00000000E-04  1.00000000E-04  1.00000000E-04  1.00000000E-04  1.00000000E-04  1.16540305E-06  3.83884300E-06  2.25136605E-05  1.96047987E-04  2.93325201E-04  1.07856059E-04  1.02525546E-04
    1.25762461E-04  1.00000000E-04  1.00000000E-04
    1.00000000E-04  1.00000000E-04  1.00000000E-04  1.00000000E-04  1.00000000E-04  1.00000000E-04  1.00000000E-04  1.00000000E-04  1.00000000E-04  1.00000000E-04  1.00000000E-04  1.00000000E-04  1.00000000E-04  1.00000000E-04  1.00000000E-04  1.00000000E-04  1.00000000E-04  1.00000000E-04  1.00000000E-04  1.00000000E-04
    1.00000000E-04  1.00000000E-04  1.00000000E-04  1.00000000E-04  1.00000000E-04  1.00000000E-04  1.00000000E-04  1.00000000E-04  1.00000000E-04  1.00000000E-04  1.00000000E-04  1.00000000E-04  1.00000000E-04  1.00000000E-04  1.00000000E-04  1.00000000E-04  1.00000000E-04  1.00000000E-04  1.00000000E-04  1.00000000E-04
    1.00000000E-04  1.00000000E-04  1.00000000E-04  1.00000000E-04  1.00000000E-04  1.00000000E-04  1.00000000E-04  1.00000000E-04  1.00000000E-04  1.00000000E-04  1.00000000E-04  1.00000000E-04  1.00000000E-04  1.00000000E-04  1.00000000E-04  1.00000000E-04  1.00000000E-04  1.00000000E-04  1.00000000E-04  1.00000000E-04
    1.00000000E-04  1.00000000E-04  1.00000000E-04  1.00000000E-04  1.00000000E-04  1.00000000E-04  1.00000000E-04  1.00000000E-04  1.00000000E-04  1.00000000E-04  1.00000000E-04  1.00000000E-04  1.00000000E-04  1.00000000E-04  1.00000000E-04  1.00000000E-04  1.00000000E-04  1.00000000E-04  1.00000000E-04  1.00000000E-04
    1.00000000E-04  1.00000000E-04  1.00000000E-04  1.00000000E-04  1.00000000E-04  1.00000000E-04  1.00000000E-04  1.00000000E-04  1.00000000E-04  1.00000000E-04  1.00000000E-04  1.00000000E-04  1.00000000E-04  2.23971735E-04  4.11244065E-04  5.07502946E-04  4.98045294E-04  3.43812152E-04  4.62241644E-04  5.60244450E-04
    5.62787951E-04  4.69188689E-04  1.00000000E-04
    1.00000000E-04  1.00000000E-04  1.00000000E-04  1.00000000E-04  1.00000000E-04  1.00000000E-04  1.00000000E-04  1.00000000E-04  1.00000000E-04  1.00000000E-04  1.00000000E-04  1.00000000E-04  1.00000000E-04  1.00000000E-04  1.00000000E-04  1.00000000E-04  1.00000000E-04  1.00000000E-04  1.00000000E-04  1.00000000E-04
    1.00000000E-04  1.00000000E-04  1.00000000E-04  1.00000000E-04  1.00000000E-04  1.00000000E-04  1.00000000E-04  1.00000000E-04  1.00000000E-04  1.00000000E-04  1.00000000E-04  1.00000000E-04  1.00000000E-04  1.00000000E-04  1.00000000E-04  1.00000000E-04  1.00000000E-04  1.00000000E-04  1.00000000E-04  1.00000000E-04
    1.00000000E-04  1.00000000E-04  1.00000000E-04  1.00000000E-04  1.00000000E-04  1.00000000E-04  1.00000000E-04  1.00000000E-04  1.00000000E-04  1.00000000E-04  1.00000000E-04  1.00000000E-04  1.00000000E-04  1.00000000E-04  1.00000000E-04  1.00000000E-04  1.00000000E-04  1.00000000E-04  1.00000000E-04  1.00000000E-04
    1.00000000E-04  1.00000000E-04  1.00000000E-04  1.00000000E-04  1.00000000E-04  1.00000000E-04  1.00000000E-04  1.00000000E-04  1.00000000E-04  1.00000000E-04  1.00000000E-04  1.00000000E-04  1.00000000E-04  1.00000000E-04  1.00000000E-04  1.00000000E-04  1.00000000E-04  1.00000000E-04  1.00000000E-04  1.00000000E-04
    1.00000000E-04  1.00000000E-04  1.00000000E-04  1.00000000E-04  1.00000000E-04  1.00000000E-04  1.00000000E-04  1.00000000E-04  1.00000000E-04  1.00000000E-04  1.00000000E-04  1.00000000E-04  1.00000000E-04  6.07880849E-04  2.76526287E-04  2.88682887E-04  1.84092827E-04  4.03872518E-06  1.54892126E-06  1.17015697E-04
    1.34759133E-04  1.51041669E-04  1.00000000E-04
    1.00000000E-04  1.00000000E-04  1.00000000E-04  1.00000000E-04  1.00000000E-04  1.00000000E-04  1.00000000E-04  1.00000000E-04  1.00000000E-04  1.00000000E-04  1.00000000E-04  1.00000000E-04  1.00000000E-04  1.00000000E-04  1.00000000E-04  1.00000000E-04  1.00000000E-04  1.00000000E-04  1.00000000E-04  1.00000000E-04
    1.00000000E-04  1.00000000E-04  1.00000000E-04  1.00000000E-04  1.00000000E-04  1.00000000E-04  1.00000000E-04  1.00000000E-04  1.00000000E-04  1.00000000E-04  1.00000000E-04  1.00000000E-04  1.00000000E-04  1.00000000E-04  1.00000000E-04  1.00000000E-04  1.00000000E-04  1.00000000E-04  1.00000000E-04  1.00000000E-04
    1.00000000E-04  1.00000000E-04  1.00000000E-04  1.00000000E-04  1.00000000E-04  1.00000000E-04  1.00000000E-04  1.00000000E-04  1.00000000E-04  1.00000000E-04  1.00000000E-04  1.00000000E-04  1.00000000E-04  1.00000000E-04  1.00000000E-04  1.00000000E-04  1.00000000E-04  1.00000000E-04  1.00000000E-04  1.00000000E-04
    1.00000000E-04  1.00000000E-04  1.00000000E-04  1.00000000E-04  1.00000000E-04  1.00000000E-04  1.00000000E-04  1.00000000E-04  1.00000000E-04  1.00000000E-04  1.00000000E-04  1.00000000E-04  1.00000000E-04  1.00000000E-04  1.00000000E-04  1.00000000E-04  1.00000000E-04  1.00000000E-04  1.00000000E-04  1.00000000E-04
    1.00000000E-04  1.00000000E-04  1.00000000E-04  1.00000000E-04  1.00000000E-04  1.00000000E-04  1.00000000E-04  1.00000000E-04  1.00000000E-04  1.00000000E-04  1.00000000E-04  1.00000000E-04  1.00000000E-04  1.00000000E-04  1.00000000E-04  1.28532073E-06  1.70620716E-06  6.41860418E-06  4.45890524E-06  3.96383405E-08
    3.85704931E-08  6.82353115E-08  1.00000000E-04
    1.00000000E-04  1.00000000E-04  1.00000000E-04  1.00000000E-04  1.00000000E-04  1.00000000E-04  1.00000000E-04  1.00000000E-04  1.00000000E-04  1.00000000E-04  1.00000000E-04  1.00000000E-04  1.00000000E-04  1.00000000E-04  1.00000000E-04  1.00000000E-04  1.00000000E-04  1.00000000E-04  1.00000000E-04  1.00000000E-04
    1.00000000E-04  1.00000000E-04  1.00000000E-04  1.00000000E-04  1.00000000E-04  1.00000000E-04  1.00000000E-04  1.00000000E-04  1.00000000E-04  1.00000000E-04  1.00000000E-04  1.00000000E-04  1.00000000E-04  1.00000000E-04  1.00000000E-04  1.00000000E-04  1.00000000E-04  1.00000000E-04  1.00000000E-04  1.00000000E-04
    1.00000000E-04  1.00000000E-04  1.00000000E-04  1.00000000E-04  1.00000000E-04  1.00000000E-04  1.00000000E-04  1.00000000E-04  1.00000000E-04  1.00000000E-04  1.00000000E-04  1.00000000E-04  1.00000000E-04  1.00000000E-04  1.00000000E-04  1.00000000E-04  1.00000000E-04  1.00000000E-04  1.00000000E-04  1.00000000E-04
    1.00000000E-04  1.00000000E-04  1.00000000E-04  1.00000000E-04  1.00000000E-04  1.00000000E-04  1.00000000E-04  1.00000000E-04  1.00000000E-04  1.00000000E-04  1.00000000E-04  1.00000000E-04  1.00000000E-04  1.00000000E-04  1.00000000E-04  1.00000000E-04  1.00000000E-04  1.00000000E-04  1.00000000E-04  1.00000000E-04
    1.00000000E-04  1.00000000E-04  1.00000000E-04  1.00000000E-04  1.00000000E-04  1.00000000E-04  1.00000000E-04  1.00000000E-04  1.00000000E-04  1.00000000E-04  1.00000000E-04  1.00000000E-04  1.00000000E-04  1.00000000E-04  1.00000000E-04  1.00000000E-04  4.22931516E-08  6.65338647E-07  5.25048694E-07  5.20147374E-08
    5.58539377E-08  3.48332303E-08  1.00000000E-04
    1.00000000E-04  1.00000000E-04  1.00000000E-04  1.00000000E-04  1.00000000E-04  1.00000000E-04  1.00000000E-04  1.00000000E-04  1.00000000E-04  1.00000000E-04  1.00000000E-04  1.00000000E-04  1.00000000E-04  1.00000000E-04  1.00000000E-04  1.00000000E-04  1.00000000E-04  1.00000000E-04  1.00000000E-04  1.00000000E-04
    1.00000000E-04  1.00000000E-04  1.00000000E-04  1.00000000E-04  1.00000000E-04  1.00000000E-04  1.00000000E-04  1.00000000E-04  1.00000000E-04  1.00000000E-04  1.00000000E-04  1.00000000E-04  1.00000000E-04  1.00000000E-04  1.00000000E-04  1.00000000E-04  1.00000000E-04  1.00000000E-04  1.00000000E-04  1.00000000E-04
    1.00000000E-04  1.00000000E-04  1.00000000E-04  1.00000000E-04  1.00000000E-04  1.00000000E-04  1.00000000E-04  1.00000000E-04  1.00000000E-04  1.00000000E-04  1.00000000E-04  1.00000000E-04  1.00000000E-04  1.00000000E-04  1.00000000E-04  1.00000000E-04  1.00000000E-04  1.00000000E-04  1.00000000E-04  1.00000000E-04
    1.00000000E-04  1.00000000E-04  1.00000000E-04  1.00000000E-04  1.00000000E-04  1.00000000E-04  1.00000000E-04  1.00000000E-04  1.00000000E-04  1.00000000E-04  1.00000000E-04  1.00000000E-04  1.00000000E-04  1.00000000E-04  1.00000000E-04  1.00000000E-04  1.00000000E-04  1.00000000E-04  1.00000000E-04  1.00000000E-04
    1.00000000E-04  1.00000000E-04  1.00000000E-04  1.00000000E-04  1.00000000E-04  1.00000000E-04  1.00000000E-04  1.00000000E-04  1.00000000E-04  1.00000000E-04  1.00000000E-04  1.00000000E-04  1.00000000E-04  1.00000000E-04  1.00000000E-04  1.00000000E-04  7.81370869E-08  3.76783257E-08  6.59320911E-08  5.94422195E-08
    4.61645660E-08  2.76472245E-08  1.00000000E-04
    1.00000000E-04  1.00000000E-04  1.00000000E-04  1.00000000E-04  1.00000000E-04  1.00000000E-04  1.00000000E-04  1.00000000E-04  1.00000000E-04  1.00000000E-04  1.00000000E-04  1.00000000E-04  1.00000000E-04  1.00000000E-04  1.00000000E-04  1.00000000E-04  1.00000000E-04  1.00000000E-04  1.00000000E-04  1.00000000E-04
    1.00000000E-04  1.00000000E-04  1.00000000E-04  1.00000000E-04  1.00000000E-04  1.00000000E-04  1.00000000E-04  1.00000000E-04  1.00000000E-04  1.00000000E-04  1.00000000E-04  1.00000000E-04  1.00000000E-04  1.00000000E-04  1.00000000E-04  1.00000000E-04  1.00000000E-04  1.00000000E-04  1.00000000E-04  1.00000000E-04
    1.00000000E-04  1.00000000E-04  1.00000000E-04  1.00000000E-04  1.00000000E-04  1.00000000E-04  1.00000000E-04  1.00000000E-04  1.00000000E-04  1.00000000E-04  1.00000000E-04  1.00000000E-04  1.00000000E-04  1.00000000E-04  1.00000000E-04  1.00000000E-04  1.00000000E-04  1.00000000E-04  1.00000000E-04  1.00000000E-04
    1.00000000E-04  1.00000000E-04  1.00000000E-04  1.00000000E-04  1.00000000E-04  1.00000000E-04  1.00000000E-04  1.00000000E-04  1.00000000E-04  1.00000000E-04  1.00000000E-04  1.00000000E-04  1.00000000E-04  1.00000000E-04  1.00000000E-04  1.00000000E-04  1.00000000E-04  1.00000000E-04  1.00000000E-04  1.00000000E-04
    1.00000000E-04  1.00000000E-04  1.00000000E-04  1.00000000E-04  1.00000000E-04  1.00000000E-04  1.00000000E-04  1.00000000E-04  1.00000000E-04  1.00000000E-04  1.00000000E-04  1.00000000E-04  1.00000000E-04  1.00000000E-04  1.00000000E-04  1.00000000E-04  3.95814115E-06  4.51746178E-08  6.36119715E-08  3.74726962E-08
    4.19480047E-08  1.00000000E-04  1.00000000E-04
    1.00000000E-04  1.00000000E-04  1.00000000E-04  1.00000000E-04  1.00000000E-04  1.00000000E-04  1.00000000E-04  1.00000000E-04  1.00000000E-04  1.00000000E-04  1.00000000E-04  1.00000000E-04  1.00000000E-04  1.00000000E-04  1.00000000E-04  1.00000000E-04  1.00000000E-04  1.00000000E-04  1.00000000E-04  1.00000000E-04
    1.00000000E-04  1.00000000E-04  1.00000000E-04  1.00000000E-04  1.00000000E-04  1.00000000E-04  1.00000000E-04  1.00000000E-04  1.00000000E-04  1.00000000E-04  1.00000000E-04  1.00000000E-04  1.00000000E-04  1.00000000E-04  1.00000000E-04  1.00000000E-04  1.00000000E-04  1.00000000E-04  1.00000000E-04  1.00000000E-04
    1.00000000E-04  1.00000000E-04  1.00000000E-04  1.00000000E-04  1.00000000E-04  1.00000000E-04  1.00000000E-04  1.00000000E-04  1.00000000E-04  1.00000000E-04  1.00000000E-04  1.00000000E-04  1.00000000E-04  1.00000000E-04  1.00000000E-04  1.00000000E-04  1.00000000E-04  1.00000000E-04  1.00000000E-04  1.00000000E-04
    1.00000000E-04  1.00000000E-04  1.00000000E-04  1.00000000E-04  1.00000000E-04  1.00000000E-04  1.00000000E-04  1.00000000E-04  1.00000000E-04  1.00000000E-04  1.00000000E-04  1.00000000E-04  1.00000000E-04  1.00000000E-04  1.00000000E-04  1.00000000E-04  1.00000000E-04  1.00000000E-04  1.00000000E-04  1.00000000E-04
    1.00000000E-04  1.00000000E-04  1.00000000E-04  1.00000000E-04  1.00000000E-04  1.00000000E-04  1.00000000E-04  1.00000000E-04  1.00000000E-04  1.00000000E-04  1.00000000E-04  1.00000000E-04  1.00000000E-04  1.00000000E-04  1.00000000E-04  1.00000000E-04  1.00000000E-04  2.98292718E-06  1.51981712E-06  3.72940885E-06
    2.07188741E-06  1.00000000E-04  1.00000000E-04
    1.00000000E-04  1.00000000E-04  1.00000000E-04  1.00000000E-04  1.00000000E-04  1.00000000E-04  1.00000000E-04  1.00000000E-04  1.00000000E-04  1.00000000E-04  1.00000000E-04  1.00000000E-04  1.00000000E-04  1.00000000E-04  1.00000000E-04  1.00000000E-04  1.00000000E-04  1.00000000E-04  1.00000000E-04  1.00000000E-04
    1.00000000E-04  1.00000000E-04  1.00000000E-04  1.00000000E-04  1.00000000E-04  1.00000000E-04  1.00000000E-04  1.00000000E-04  1.00000000E-04  1.00000000E-04  1.00000000E-04  1.00000000E-04  1.00000000E-04  1.00000000E-04  1.00000000E-04  1.00000000E-04  1.00000000E-04  1.00000000E-04  1.00000000E-04  1.00000000E-04
    1.00000000E-04  1.00000000E-04  1.00000000E-04  1.00000000E-04  1.00000000E-04  1.00000000E-04  1.00000000E-04  1.00000000E-04  1.00000000E-04  1.00000000E-04  1.00000000E-04  1.00000000E-04  1.00000000E-04  1.00000000E-04  1.00000000E-04  1.00000000E-04  1.00000000E-04  1.00000000E-04  1.00000000E-04  1.00000000E-04
    1.00000000E-04  1.00000000E-04  1.00000000E-04  1.00000000E-04  1.00000000E-04  1.00000000E-04  1.00000000E-04  1.00000000E-04  1.00000000E-04  1.00000000E-04  1.00000000E-04  1.00000000E-04  1.00000000E-04  1.00000000E-04  1.00000000E-04  1.00000000E-04  1.00000000E-04  1.00000000E-04  1.00000000E-04  1.00000000E-04
    1.00000000E-04  1.00000000E-04  1.00000000E-04  1.00000000E-04  1.00000000E-04  1.00000000E-04  1.00000000E-04  1.00000000E-04  1.00000000E-04  1.00000000E-04  1.00000000E-04  1.00000000E-04  1.00000000E-04  1.00000000E-04  1.00000000E-04  7.13742016E-04  5.39803717E-04  3.80170877E-04  3.47107315E-04  4.87380851E-04
    3.95511345E-04  1.00000000E-04  1.00000000E-04
    1.00000000E-04  1.00000000E-04  1.00000000E-04  1.00000000E-04  1.00000000E-04  1.00000000E-04  1.00000000E-04  1.00000000E-04  1.00000000E-04  1.00000000E-04  1.00000000E-04  1.00000000E-04  1.00000000E-04  1.00000000E-04  1.00000000E-04  1.00000000E-04  1.00000000E-04  1.00000000E-04  1.00000000E-04  1.00000000E-04
    1.00000000E-04  1.00000000E-04  1.00000000E-04  1.00000000E-04  1.00000000E-04  1.00000000E-04  1.00000000E-04  1.00000000E-04  1.00000000E-04  1.00000000E-04  1.00000000E-04  1.00000000E-04  1.00000000E-04  1.00000000E-04  1.00000000E-04  1.00000000E-04  1.00000000E-04  1.00000000E-04  1.00000000E-04  1.00000000E-04
    1.00000000E-04  1.00000000E-04  1.00000000E-04  1.00000000E-04  1.00000000E-04  1.00000000E-04  1.00000000E-04  1.00000000E-04  1.00000000E-04  1.00000000E-04  1.00000000E-04  1.00000000E-04  1.00000000E-04  1.00000000E-04  1.00000000E-04  1.00000000E-04  1.00000000E-04  1.00000000E-04  1.00000000E-04  1.00000000E-04
    1.00000000E-04  1.00000000E-04  1.00000000E-04  1.00000000E-04  1.00000000E-04  1.00000000E-04  1.00000000E-04  1.00000000E-04  1.00000000E-04  1.00000000E-04  1.00000000E-04  1.00000000E-04  1.00000000E-04  1.00000000E-04  1.00000000E-04  1.00000000E-04  1.00000000E-04  1.00000000E-04  1.00000000E-04  1.00000000E-04
    1.00000000E-04  1.00000000E-04  1.00000000E-04  1.00000000E-04  1.00000000E-04  1.00000000E-04  1.00000000E-04  1.00000000E-04  1.00000000E-04  1.00000000E-04  1.00000000E-04  1.00000000E-04  1.00000000E-04  1.00000000E-04  1.00000000E-04  2.29562891E-04  4.03571578E-04  3.99773984E-04  2.95429074E-04  1.89315655E-04
    2.01786891E-04  1.00000000E-04  1.00000000E-04
    1.00000000E-04  1.00000000E-04  1.00000000E-04  1.00000000E-04  1.00000000E-04  1.00000000E-04  1.00000000E-04  1.00000000E-04  1.00000000E-04  1.00000000E-04  1.00000000E-04  1.00000000E-04  1.00000000E-04  1.00000000E-04  1.00000000E-04  1.00000000E-04  1.00000000E-04  1.00000000E-04  1.00000000E-04  1.00000000E-04
    1.00000000E-04  1.00000000E-04  1.00000000E-04  1.00000000E-04  1.00000000E-04  1.00000000E-04  1.00000000E-04  1.00000000E-04  1.00000000E-04  1.00000000E-04  1.00000000E-04  1.00000000E-04  1.00000000E-04  1.00000000E-04  1.00000000E-04  1.00000000E-04  1.00000000E-04  1.00000000E-04  1.00000000E-04  1.00000000E-04
    1.00000000E-04  1.00000000E-04  1.00000000E-04  1.00000000E-04  1.00000000E-04  1.00000000E-04  1.00000000E-04  1.00000000E-04  1.00000000E-04  1.00000000E-04  1.00000000E-04  1.00000000E-04  1.00000000E-04  1.00000000E-04  1.00000000E-04  1.00000000E-04  1.00000000E-04  1.00000000E-04  1.00000000E-04  1.00000000E-04
    1.00000000E-04  1.00000000E-04  1.00000000E-04  1.00000000E-04  1.00000000E-04  1.00000000E-04  1.00000000E-04  1.00000000E-04  1.00000000E-04  1.00000000E-04  1.00000000E-04  1.00000000E-04  1.00000000E-04  1.00000000E-04  1.00000000E-04  1.00000000E-04  1.00000000E-04  1.00000000E-04  1.00000000E-04  1.00000000E-04
    1.00000000E-04  1.00000000E-04  1.00000000E-04  1.00000000E-04  1.00000000E-04  1.00000000E-04  1.00000000E-04  1.00000000E-04  1.00000000E-04  1.00000000E-04  1.00000000E-04  1.00000000E-04  1.00000000E-04  1.00000000E-04  1.00000000E-04  3.17197132E-06  3.27354871E-06  5.76584178E-06  5.82900684E-06  4.53720295E-08
    1.00000000E-04  1.00000000E-04  1.00000000E-04
    1.00000000E-04  1.00000000E-04  1.00000000E-04  1.00000000E-04  1.00000000E-04  1.00000000E-04  1.00000000E-04  1.00000000E-04  1.00000000E-04  1.00000000E-04  1.00000000E-04  1.00000000E-04  1.00000000E-04  1.00000000E-04  1.00000000E-04  1.00000000E-04  1.00000000E-04  1.00000000E-04  1.00000000E-04  1.00000000E-04
    1.00000000E-04  1.00000000E-04  1.00000000E-04  1.00000000E-04  1.00000000E-04  1.00000000E-04  1.00000000E-04  1.00000000E-04  1.00000000E-04  1.00000000E-04  1.00000000E-04  1.00000000E-04  1.00000000E-04  1.00000000E-04  1.00000000E-04  1.00000000E-04  1.00000000E-04  1.00000000E-04  1.00000000E-04  1.00000000E-04
    1.00000000E-04  1.00000000E-04  1.00000000E-04  1.00000000E-04  1.00000000E-04  1.00000000E-04  1.00000000E-04  1.00000000E-04  1.00000000E-04  1.00000000E-04  1.00000000E-04  1.00000000E-04  1.00000000E-04  1.00000000E-04  1.00000000E-04  1.00000000E-04  1.00000000E-04  1.00000000E-04  1.00000000E-04  1.00000000E-04
    1.00000000E-04  1.00000000E-04  1.00000000E-04  1.00000000E-04  1.00000000E-04  1.00000000E-04  1.00000000E-04  1.00000000E-04  1.00000000E-04  1.00000000E-04  1.00000000E-04  1.00000000E-04  1.00000000E-04  1.00000000E-04  1.00000000E-04  1.00000000E-04  1.00000000E-04  1.00000000E-04  1.00000000E-04  1.00000000E-04
    1.00000000E-04  1.00000000E-04  1.00000000E-04  1.00000000E-04  1.00000000E-04  1.00000000E-04  1.00000000E-04  1.00000000E-04  1.00000000E-04  1.00000000E-04  1.00000000E-04  1.00000000E-04  1.00000000E-04  7.74523345E-08  5.62721991E-08  5.06138698E-08  3.20517434E-06  3.32459638E-06  1.04927662E-06  4.32117392E-08
    1.00000000E-04  1.00000000E-04  1.00000000E-04
    1.00000000E-04  1.00000000E-04  1.00000000E-04  1.00000000E-04  1.00000000E-04  1.00000000E-04  1.00000000E-04  1.00000000E-04  1.00000000E-04  1.00000000E-04  1.00000000E-04  1.00000000E-04  1.00000000E-04  1.00000000E-04  1.00000000E-04  1.00000000E-04  1.00000000E-04  1.00000000E-04  1.00000000E-04  1.00000000E-04
    1.00000000E-04  1.00000000E-04  1.00000000E-04  1.00000000E-04  1.00000000E-04  1.00000000E-04  1.00000000E-04  1.00000000E-04  1.00000000E-04  1.00000000E-04  1.00000000E-04  1.00000000E-04  1.00000000E-04  1.00000000E-04  1.00000000E-04  1.00000000E-04  1.00000000E-04  1.00000000E-04  1.00000000E-04  1.00000000E-04
    1.00000000E-04  1.00000000E-04  1.00000000E-04  1.00000000E-04  1.00000000E-04  1.00000000E-04  1.00000000E-04  1.00000000E-04  1.00000000E-04  1.00000000E-04  1.00000000E-04  1.00000000E-04  1.00000000E-04  1.00000000E-04  1.00000000E-04  1.00000000E-04  1.00000000E-04  1.00000000E-04  1.00000000E-04  1.00000000E-04
    1.00000000E-04  1.00000000E-04  1.00000000E-04  1.00000000E-04  1.00000000E-04  1.00000000E-04  1.00000000E-04  1.00000000E-04  1.00000000E-04  1.00000000E-04  1.00000000E-04  1.00000000E-04  1.00000000E-04  1.00000000E-04  1.00000000E-04  1.00000000E-04  1.00000000E-04  1.00000000E-04  1.00000000E-04  1.00000000E-04
    1.00000000E-04  1.00000000E-04  1.00000000E-04  1.00000000E-04  1.00000000E-04  1.00000000E-04  1.00000000E-04  1.00000000E-04  1.00000000E-04  1.00000000E-04  1.00000000E-04  1.00000000E-04  4.59420862E-08  4.90472286E-08  5.82204239E-08  6.67781811E-08  4.23553743E-08  6.54014051E-08  5.46492738E-08  5.85523449E-08
    1.00000000E-04  1.00000000E-04  1.00000000E-04
    1.00000000E-04  1.00000000E-04  1.00000000E-04  1.00000000E-04  1.00000000E-04  1.00000000E-04  1.00000000E-04  1.00000000E-04  1.00000000E-04  1.00000000E-04  1.00000000E-04  1.00000000E-04  1.00000000E-04  1.00000000E-04  1.00000000E-04  1.00000000E-04  1.00000000E-04  1.00000000E-04  1.00000000E-04  1.00000000E-04
    1.00000000E-04  1.00000000E-04  1.00000000E-04  1.00000000E-04  1.00000000E-04  1.00000000E-04  1.00000000E-04  1.00000000E-04  1.00000000E-04  1.00000000E-04  1.00000000E-04  1.00000000E-04  1.00000000E-04  1.00000000E-04  1.00000000E-04  1.00000000E-04  1.00000000E-04  1.00000000E-04  1.00000000E-04  1.00000000E-04
    1.00000000E-04  1.00000000E-04  1.00000000E-04  1.00000000E-04  1.00000000E-04  1.00000000E-04  1.00000000E-04  1.00000000E-04  1.00000000E-04  1.00000000E-04  1.00000000E-04  1.00000000E-04  1.00000000E-04  1.00000000E-04  1.00000000E-04  1.00000000E-04  1.00000000E-04  1.00000000E-04  1.00000000E-04  1.00000000E-04
    1.00000000E-04  1.00000000E-04  1.00000000E-04  1.00000000E-04  1.00000000E-04  1.00000000E-04  1.00000000E-04  1.00000000E-04  1.00000000E-04  1.00000000E-04  1.00000000E-04  1.00000000E-04  1.00000000E-04  1.00000000E-04  1.00000000E-04  1.00000000E-04  1.00000000E-04  1.00000000E-04  1.00000000E-04  1.00000000E-04
    1.00000000E-04  1.00000000E-04  1.00000000E-04  1.00000000E-04  1.00000000E-04  1.00000000E-04  1.00000000E-04  1.00000000E-04  1.00000000E-04  1.00000000E-04  1.00000000E-04  3.27154866E-07  5.09975552E-08  4.11272518E-08  5.72762000E-08  5.21088250E-08  5.38331724E-08  5.13080800E-08  5.29972559E-08  5.86143237E-08
    1.00000000E-04  1.00000000E-04  1.00000000E-04
    1.00000000E-04  1.00000000E-04  1.00000000E-04  1.00000000E-04  1.00000000E-04  1.00000000E-04  1.00000000E-04  1.00000000E-04  1.00000000E-04  1.00000000E-04  1.00000000E-04  1.00000000E-04  1.00000000E-04  1.00000000E-04  1.00000000E-04  1.00000000E-04  1.00000000E-04  1.00000000E-04  1.00000000E-04  1.00000000E-04
    1.00000000E-04  1.00000000E-04  1.00000000E-04  1.00000000E-04  1.00000000E-04  1.00000000E-04  1.00000000E-04  1.00000000E-04  1.00000000E-04  1.00000000E-04  1.00000000E-04  1.00000000E-04  1.00000000E-04  1.00000000E-04  1.00000000E-04  1.00000000E-04  1.00000000E-04  1.00000000E-04  1.00000000E-04  1.00000000E-04
    1.00000000E-04  1.00000000E-04  1.00000000E-04  1.00000000E-04  1.00000000E-04  1.00000000E-04  1.00000000E-04  1.00000000E-04  1.00000000E-04  1.00000000E-04  1.00000000E-04  1.00000000E-04  1.00000000E-04  1.00000000E-04  1.00000000E-04  1.00000000E-04  1.00000000E-04  1.00000000E-04  1.00000000E-04  1.00000000E-04
    1.00000000E-04  1.00000000E-04  1.00000000E-04  1.00000000E-04  1.00000000E-04  1.00000000E-04  1.00000000E-04  1.00000000E-04  1.00000000E-04  1.00000000E-04  1.00000000E-04  1.00000000E-04  1.00000000E-04  1.00000000E-04  1.00000000E-04  1.00000000E-04  1.00000000E-04  1.00000000E-04  1.00000000E-04  1.00000000E-04