BEGIN options
END options

BEGIN griddata
  icelltype
    CONSTANT  0
  k
    INTERNAL  FACTOR  1.0
    1.00000000E-04  1.00000000E-04  1.00000000E-04  1.00000000E-04  1.00000000E-04  1.00000000E-04  1.00000000E-04  1.00000000E-04  1.00000000E-04  1.00000000E-04  1.00000000E-04  1.00000000E-04  1.00000000E-04  1.00000000E-04  1.00000000E-04  1.00000000E-04  1.00000000E-04  1.00000000E-04  1.00000000E-04  1.00000000E-04
    1.00000000E-04  1.00000000E-04  1.00000000E-04  1.00000000E-04  1.00000000E-04  1.00000000E-04  1.00000000E-04  1.00000000E-04  1.00000000E-04  1.00000000E-04  1.00000000E-04  1.00000000E-04  1.00000000E-04  1.00000000E-04  1.00000000E-04  1.00000000E-04  1.00000000E-04  1.00000000E-04  1.00000000E-04  1.00000000E-04
    1.00000000E-04  1.00000000E-04  1.00000000E-04  1.00000000E-04  1.00000000E-04  1.00000000E-04  1.00000000E-04  1.00000000E-04  1.00000000E-04  1.00000000E-04  1.00000000E-04  1.00000000E-04  1.00000000E-04  1.00000000E-04  1.00000000E-04  1.00000000E-04  1.00000000E-04  1.00000000E-04  1.00000000E-04  1.00000000E-04
    1.00000000E-04  1.00000000E-04  1.00000000E-04  1.00000000E-04  1.00000000E-04  1.00000000E-04  1.00000000E-04  1.00000000E-04  1.00000000E-04  1.00000000E-04  1.00000000E-04  1.00000000E-04  1.00000000E-04  1.00000000E-04  1.00000000E-04  1.00000000E-04  1.00000000E-04  1.00000000E-04  1.00000000E-04  1.00000000E-04
    1.00000000E-04  1.00000000E-04  1.00000000E-04  1.00000000E-04  1.00000000E-04  1.00000000E-04  1.00000000E-04  1.00000000E-04  1.00000000E-04  1.00000000E-04  1.00000000E-04  1.00000000E-04  1.00000000E-04  4.70974304E-08  3.91119031E-08  4.65845843E-08  1.00000000E-04  1.00000000E-04  1.00000000E-04  1.00000000E-04
    1.00000000E-04  1.00000000E-04  1.00000000E-04
    1.00000000E-04  1.00000000E-04  1.00000000E-04  1.00000000E-04  1.00000000E-04  1.00000000E-04  1.00000000E-04  1.00000000E-04  1.00000000E-04  1.00000000E-04  1.00000000E-04  1.00000000E-04  1.00000000E-04  1.00000000E-04  1.00000000E-04  1.00000000E-04  1.00000000E-04  1.00000000E-04  1.00000000E-04  1.00000000E-04
    1.00000000E-04  1.00000000E-04  1.00000000E-04  1.00000000E-04  1.00000000E-04  1.00000000E-04  1.00000000E-04  1.00000000E-04  1.00000000E-04  1.00000000E-04  1.00000000E-04  1.00000000E-04  1.00000000E-04  1.00000000E-04  1.00000000E-04  1.00000000E-04  1.00000000E-04  1.00000000E-04  1.00000000E-04  1.00000000E-04
    1.00000000E-04  1.00000000E-04  1.00000000E-04  1.00000000E-04  1.00000000E-04  1.00000000E-04  1.00000000E-04  1.00000000E-04  1.00000000E-04  1.00000000E-04  1.00000000E-04  1.00000000E-04  1.00000000E-04  1.00000000E-04  1.00000000E-04  1.00000000E-04  1.00000000E-04  1.00000000E-04  1.00000000E-04  1.00000000E-04
    1.00000000E-04  1.00000000E-04  1.00000000E-04  1.00000000E-04  1.00000000E-04  1.00000000E-04  1.00000000E-04  1.00000000E-04  1.00000000E-04  1.00000000E-04  1.00000000E-04  1.00000000E-04  1.00000000E-04  1.00000000E-04  1.00000000E-04  1.00000000E-04  1.00000000E-04  1.00000000E-04  1.00000000E-04  1.00000000E-04
    1.00000000E-04  1.00000000E-04  1.00000000E-04  1.00000000E-04  1.00000000E-04  1.00000000E-04  1.00000000E-04  1.00000000E-04  1.00000000E-04  1.00000000E-04  1.00000000E-04  1.00000000E-04  1.00000000E-04  4.51470699E-08       0.00301301  5.83716043E-08       0.00265512  5.92701819E-04  1.00000000E-04  1.00000000E-04
    1.00000000E-04  1.00000000E-04  1.00000000E-04
    1.00000000E-04  1.00000000E-04  1.00000000E-04  1.00000000E-04  1.00000000E-04  1.00000000E-04  1.00000000E-04  1.00000000E-04  1.00000000E-04  1.00000000E-04  1.00000000E-04  1.00000000E-04  1.00000000E-04  1.00000000E-04  1.00000000E-04  1.00000000E-04  1.00000000E-04  1.00000000E-04  1.00000000E-04  1.00000000E-04
    1.00000000E-04  1.00000000E-04  1.00000000E-04  1.00000000E-04  1.00000000E-04  1.00000000E-04  1.00000000E-04  1.00000000E-04  1.00000000E-04  1.00000000E-04  1.00000000E-04  1.00000000E-04  1.00000000E-04  1.00000000E-04  1.00000000E-04  1.00000000E-04  1.00000000E-04  1.00000000E-04  1.00000000E-04  1.00000000E-04
    1.00000000E-04  1.00000000E-04  1.00000000E-04  1.00000000E-04  1.00000000E-04  1.00000000E-04  1.00000000E-04  1.00000000E-04  1.00000000E-04  1.00000000E-04  1.00000000E-04  1.00000000E-04  1.00000000E-04  1.00000000E-04  1.00000000E-04  1.00000000E-04  1.00000000E-04  1.00000000E-04  1.00000000E-04  1.00000000E-04
    1.00000000E-04  1.00000000E-04  1.00000000E-04  1.00000000E-04  1.00000000E-04  1.00000000E-04  1.00000000E-04  1.00000000E-04  1.00000000E-04  1.00000000E-04  1.00000000E-04  1.00000000E-04  1.00000000E-04  1.00000000E-04  1.00000000E-04  1.00000000E-04  1.00000000E-04  1.00000000E-04  1.00000000E-04  1.00000000E-04
    1.00000000E-04  1.00000000E-04  1.00000000E-04  1.00000000E-04  1.00000000E-04  1.00000000E-04  1.00000000E-04  1.00000000E-04  1.00000000E-04  1.00000000E-04  1.00000000E-04  1.00000000E-04  1.00000000E-04  1.89542682E-04       0.00507247       0.00124664  4.66109000E-04       0.00567163  3.34798282E-04  5.32146222E-08
    1.00000000E-04  1.00000000E-04  1.00000000E-04
    1.00000000E-04  1.00000000E-04  1.00000000E-04  1.00000000E-04  1.00000000E-04  1.00000000E-04  1.00000000E-04  1.00000000E-04  1.00000000E-04  1.00000000E-04  1.00000000E-04  1.00000000E-04  1.00000000E-04  1.00000000E-04  1.00000000E-04  1.00000000E-04  1.00000000E-04  1.00000000E-04  1.00000000E-04  1.00000000E-04
    1.00000000E-04  1.00000000E-04  1.00000000E-04  1.00000000E-04  1.00000000E-04  1.00000000E-04  1.00000000E-04  1.00000000E-04  1.00000000E-04  1.00000000E-04  1.00000000E-04  1.00000000E-04  1.00000000E-04  1.00000000E-04  1.00000000E-04  1.00000000E-04  1.00000000E-04  1.00000000E-04  1.00000000E-04  1.00000000E-04
    1.00000000E-04  1.00000000E-04  1.00000000E-04  1.00000000E-04  1.00000000E-04  1.00000000E-04  1.00000000E-04  1.00000000E-04  1.00000000E-04  1.00000000E-04  1.00000000E-04  1.00000000E-04  1.00000000E-04  1.00000000E-04  1.00000000E-04  1.00000000E-04  1.00000000E-04  1.00000000E-04  1.00000000E-04  1.00000000E-04
    1.00000000E-04  1.00000000E-04  1.00000000E-04  1.00000000E-04  1.00000000E-04  1.00000000E-04  1.00000000E-04  1.00000000E-04  1.00000000E-04  1.00000000E-04  1.00000000E-04  1.00000000E-04  1.00000000E-04  1.00000000E-04  1.00000000E-04  1.00000000E-04  1.00000000E-04  1.00000000E-04  1.00000000E-04  1.00000000E-04
    1.00000000E-04  1.00000000E-04  1.00000000E-04  1.00000000E-04  1.00000000E-04  1.00000000E-04  1.00000000E-04  1.00000000E-04  1.00000000E-04  1.00000000E-04  1.00000000E-04  1.00000000E-04  1.00000000E-04       0.00215476       0.00330838       0.00349126       0.00332661       0.00474425       0.00653793       0.00323619
         0.00592910  1.00000000E-04  1.00000000E-04
    1.00000000E-04  1.00000000E-04  1.00000000E-04  1.00000000E-04  1.00000000E-04  1.00000000E-04  1.00000000E-04  1.00000000E-04  1.00000000E-04  1.00000000E-04  1.00000000E-04  1.00000000E-04  1.00000000E-04  1.00000000E-04  1.00000000E-04  1.00000000E-04  1.00000000E-04  1.00000000E-04  1.00000000E-04  1.00000000E-04
    1.00000000E-04  1.00000000E-04  1.00000000E-04  1.00000000E-04  1.00000000E-04  1.00000000E-04  1.00000000E-04  1.00000000E-04  1.00000000E-04  1.00000000E-04  1.00000000E-04  1.00000000E-04  1.00000000E-04  1.00000000E-04  1.00000000E-04  1.00000000E-04  1.00000000E-04  1.00000000E-04  1.00000000E-04  1.00000000E-04
    1.00000000E-04  1.00000000E-04  1.00000000E-04  1.00000000E-04  1.00000000E-04  1.00000000E-04  1.00000000E-04  1.00000000E-04  1.00000000E-04  1.00000000E-04  1.00000000E-04  1.00000000E-04  1.00000000E-04  1.00000000E-04  1.00000000E-04  1.00000000E-04  1.00000000E-04  1.00000000E-04  1.00000000E-04  1.00000000E-04
    1.00000000E-04  1.00000000E-04  1.00000000E-04  1.00000000E-04  1.00000000E-04  1.00000000E-04  1.00000000E-04  1.00000000E-04  1.00000000E-04  1.00000000E-04  1.00000000E-04  1.00000000E-04  1.00000000E-04  1.00000000E-04  1.00000000E-04  1.00000000E-04  1.00000000E-04  1.00000000E-04  1.00000000E-04  1.00000000E-04
    1.00000000E-04  1.00000000E-04  1.00000000E-04  1.00000000E-04  1.00000000E-04  1.00000000E-04  1.00000000E-04  1.00000000E-04  1.00000000E-04  1.00000000E-04  1.00000000E-04  1.00000000E-04  1.00000000E-04       0.00640215       0.00359219       0.00542131       0.00434171       0.00534765       0.00532228       0.00503396
         0.00648728       0.00295377  1.00000000E-04
    1.00000000E-04  1.00000000E-04  1.00000000E-04  1.00000000E-04  1.00000000E-04  1.00000000E-04  1.00000000E-04  1.00000000E-04  1.00000000E-04  1.00000000E-04  1.00000000E-04  1.00000000E-04  1.00000000E-04  1.00000000E-04  1.00000000E-04  1.00000000E-04  1.00000000E-04  1.00000000E-04  1.00000000E-04  1.00000000E-04
    1.00000000E-04  1.00000000E-04  1.00000000E-04  1.00000000E-04  1.00000000E-04  1.00000000E-04  1.00000000E-04  1.00000000E-04  1.00000000E-04  1.00000000E-04  1.00000000E-04  1.00000000E-04  1.00000000E-04  1.00000000E-04  1.00000000E-04  1.00000000E-04  1.00000000E-04  1.00000000E-04  1.00000000E-04  1.00000000E-04
    1.00000000E-04  1.00000000E-04  1.00000000E-04  1.00000000E-04  1.00000000E-04  1.00000000E-04  1.00000000E-04  1.00000000E-04  1.00000000E-04  1.00000000E-04  1.00000000E-04  1.00000000E-04  1.00000000E-04  1.00000000E-04  1.00000000E-04  1.00000000E-04  1.00000000E-04  1.00000000E-04  1.00000000E-04  1.00000000E-04
    1.00000000E-04  1.00000000E-04  1.00000000E-04  1.00000000E-04  1.00000000E-04  1.00000000E-04  1.00000000E-04  1.00000000E-04  1.00000000E-04  1.00000000E-04  1.00000000E-04  1.00000000E-04  1.00000000E-04  1.00000000E-04  1.00000000E-04  1.00000000E-04  1.00000000E-04  1.00000000E-04  1.00000000E-04  1.00000000E-04
    1.00000000E-04  1.00000000E-04  1.00000000E-04  1.00000000E-04  1.00000000E-04  1.00000000E-04  1.00000000E-04  1.00000000E-04  1.00000000E-04  1.00000000E-04  1.00000000E-04  1.00000000E-04  1.00000000E-04       0.00591628       0.00465546       0.00584906       0.00421644       0.00586364       0.00222847       0.00518333
         0.00348207       0.00382287  1.00000000E-04
    1.00000000E-04  1.00000000E-04  1.00000000E-04  1.00000000E-04  1.00000000E-04  1.00000000E-04  1.00000000E-04  1.00000000E-04  1.00000000E-04  1.00000000E-04  1.00000000E-04  1.00000000E-04  1.00000000E-04  1.00000000E-04  1.00000000E-04  1.00000000E-04  1.00000000E-04  1.00000000E-04  1.00000000E-04  1.00000000E-04
    1.00000000E-04  1.00000000E-04  1.00000000E-04  1.00000000E-04  1.00000000E-04  1.00000000E-04  1.00000000E-04  1.00000000E-04  1.00000000E-04  1.00000000E-04  1.00000000E-04  1.00000000E-04  1.00000000E-04  1.00000000E-04  1.00000000E-04  1.00000000E-04  1.00000000E-04  1.00000000E-04  1.00000000E-04  1.00000000E-04
    1.00000000E-04  1.00000000E-04  1.00000000E-04  1.00000000E-04  1.00000000E-04  1.00000000E-04  1.00000000E-04  1.00000000E-04  1.00000000E-04  1.00000000E-04  1.00000000E-04  1.00000000E-04  1.00000000E-04  1.00000000E-04  1.00000000E-04  1.00000000E-04  1.00000000E-04  1.00000000E-04  1.00000000E-04  1.00000000E-04
    1.00000000E-04  1.00000000E-04  1.00000000E-04  1.00000000E-04  1.00000000E-04  1.00000000E-04  1.00000000E-04  1.00000000E-04  1.00000000E-04  1.00000000E-04  1.00000000E-04  1.00000000E-04  1.00000000E-04  1.00000000E-04  1.00000000E-04  1.00000000E-04  1.00000000E-04  1.00000000E-04  1.00000000E-04  1.00000000E-04
    1.00000000E-04  1.00000000E-04  1.00000000E-04  1.00000000E-04  1.00000000E-04  1.00000000E-04  1.00000000E-04  1.00000000E-04  1.00000000E-04  1.00000000E-04  1.00000000E-04  1.00000000E-04  1.00000000E-04  1.00000000E-04  1.00000000E-04  7.94001484E-04       0.00127200       0.00627897       0.00233640  5.93846499E-08
    5.67432571E-08  4.24796920E-08  1.00000000E-04
    1.00000000E-04  1.00000000E-04  1.00000000E-04  1.00000000E-04  1.00000000E-04  1.00000000E-04  1.00000000E-04  1.00000000E-04  1.00000000E-04  1.00000000E-04  1.00000000E-04  1.00000000E-04  1.00000000E-04  1.00000000E-04  1.00000000E-04  1.00000000E-04  1.00000000E-04  1.00000000E-04  1.00000000E-04  1.00000000E-04
    1.00000000E-04  1.00000000E-04  1.00000000E-04  1.00000000E-04  1.00000000E-04  1.00000000E-04  1.00000000E-04  1.00000000E-04  1.00000000E-04  1.00000000E-04  1.00000000E-04  1.00000000E-04  1.00000000E-04  1.00000000E-04  1.00000000E-04  1.00000000E-04  1.00000000E-04  1.00000000E-04  1.00000000E-04  1.00000000E-04
    1.00000000E-04  1.00000000E-04  1.00000000E-04  1.00000000E-04  1.00000000E-04  1.00000000E-04  1.00000000E-04  1.00000000E-04  1.00000000E-04  1.00000000E-04  1.00000000E-04  1.00000000E-04  1.00000000E-04  1.00000000E-04  1.00000000E-04  1.00000000E-04  1.00000000E-04  1.00000000E-04  1.00000000E-04  1.00000000E-04
    1.00000000E-04  1.00000000E-04  1.00000000E-04  1.00000000E-04  1.00000000E-04  1.00000000E-04  1.00000000E-04  1.00000000E-04  1.00000000E-04  1.00000000E-04  1.00000000E-04  1.00000000E-04  1.00000000E-04  1.00000000E-04  1.00000000E-04  1.00000000E-04  1.00000000E-04  1.00000000E-04  1.00000000E-04  1.00000000E-04
    1.00000000E-04  1.00000000E-04  1.00000000E-04  1.00000000E-04  1.00000000E-04  1.00000000E-04  1.00000000E-04  1.00000000E-04  1.00000000E-04  1.00000000E-04  1.00000000E-04  1.00000000E-04  1.00000000E-04  1.00000000E-04  1.00000000E-04  1.00000000E-04  5.28120234E-08  1.00789137E-04  1.12059233E-04  4.76089791E-08
    6.50794991E-08  3.93037134E-08  1.00000000E-04
    1.00000000E-04  1.00000000E-04  1.00000000E-04  1.00000000E-04  1.00000000E-04  1.00000000E-04  1.00000000E-04  1.00000000E-04  1.00000000E-04  1.00000000E-04  1.00000000E-04  1.00000000E-04  1.00000000E-04  1.00000000E-04  1.00000000E-04  1.00000000E-04  1.00000000E-04  1.00000000E-04  1.00000000E-04  1.00000000E-04
    1.00000000E-04  1.00000000E-04  1.00000000E-04  1.00000000E-04  1.00000000E-04  1.00000000E-04  1.00000000E-04  1.00000000E-04  1.00000000E-04  1.00000000E-04  1.00000000E-04  1.00000000E-04  1.00000000E-04  1.00000000E-04  1.00000000E-04  1.00000000E-04  1.00000000E-04  1.00000000E-04  1.00000000E-04  1.00000000E-04
    1.00000000E-04  1.00000000E-04  1.00000000E-04  1.00000000E-04  1.00000000E-04  1.00000000E-04  1.00000000E-04  1.00000000E-04  1.00000000E-04  1.00000000E-04  1.00000000E-04  1.00000000E-04  1.00000000E-04  1.00000000E-04  1.00000000E-04  1.00000000E-04  1.00000000E-04  1.00000000E-04  1.00000000E-04  1.00000000E-04
    1.00000000E-04  1.00000000E-04  1.00000000E-04  1.00000000E-04  1.00000000E-04  1.00000000E-04  1.00000000E-04  1.00000000E-04  1.00000000E-04  1.00000000E-04  1.00000000E-04  1.00000000E-04  1.00000000E-04  1.00000000E-04  1.00000000E-04  1.00000000E-04  1.00000000E-04  1.00000000E-04  1.00000000E-04  1.00000000E-04
    1.00000000E-04  1.00000000E-04  1.00000000E-04  1.00000000E-04  1.00000000E-04  1.00000000E-04  1.00000000E-04  1.00000000E-04  1.00000000E-04  1.00000000E-04  1.00000000E-04  1.00000000E-04  1.00000000E-04  1.00000000E-04  1.00000000E-04  1.00000000E-04  7.70689160E-08  5.51421833E-08  4.51740513E-08  6.11070046E-08
    4.62627359E-08  6.66418654E-08  1.00000000E-04
    1.00000000E-04  1.00000000E-04  1.00000000E-04  1.00000000E-04  1.00000000E-04  1.00000000E-04  1.00000000E-04  1.00000000E-04  1.00000000E-04  1.00000000E-04  1.00000000E-04  1.00000000E-04  1.00000000E-04  1.00000000E-04  1.00000000E-04  1.00000000E-04  1.00000000E-04  1.00000000E-04  1.00000000E-04  1.00000000E-04
    1.00000000E-04  1.00000000E-04  1.00000000E-04  1.00000000E-04  1.00000000E-04  1.00000000E-04  1.00000000E-04  1.00000000E-04  1.00000000E-04  1.00000000E-04  1.00000000E-04  1.00000000E-04  1.00000000E-04  1.00000000E-04  1.00000000E-04  1.00000000E-04  1.00000000E-04  1.00000000E-04  1.00000000E-04  1.00000000E-04
    1.00000000E-04  1.00000000E-04  1.00000000E-04  1.00000000E-04  1.00000000E-04  1.00000000E-04  1.00000000E-04  1.00000000E-04  1.00000000E-04  1.00000000E-04  1.00000000E-04  1.00000000E-04  1.00000000E-04  1.00000000E-04  1.00000000E-04  1.00000000E-04  1.00000000E-04  1.00000000E-04  1.00000000E-04  1.00000000E-04
    1.00000000E-04  1.00000000E-04  1.00000000E-04  1.00000000E-04  1.00000000E-04  1.00000000E-04  1.00000000E-04  1.00000000E-04  1.00000000E-04  1.00000000E-04  1.00000000E-04  1.00000000E-04  1.00000000E-04  1.00000000E-04  1.00000000E-04  1.00000000E-04  1.00000000E-04  1.00000000E-04  1.00000000E-04  1.00000000E-04
    1.00000000E-04  1.00000000E-04  1.00000000E-04  1.00000000E-04  1.00000000E-04  1.00000000E-04  1.00000000E-04  1.00000000E-04  1.00000000E-04  1.00000000E-04  1.00000000E-04  1.00000000E-04  1.00000000E-04  1.00000000E-04  1.00000000E-04  1.00000000E-04       0.00226310  4.73966949E-08  4.17755582E-08  5.07161582E-08
    5.73925561E-08  1.00000000E-04  1.00000000E-04
    1.00000000E-04  1.00000000E-04  1.00000000E-04  1.00000000E-04  1.00000000E-04  1.00000000E-04  1.00000000E-04  1.00000000E-04  1.00000000E-04  1.00000000E-04  1.00000000E-04  1.00000000E-04  1.00000000E-04  1.00000000E-04  1.00000000E-04  1.00000000E-04  1.00000000E-04  1.00000000E-04  1.00000000E-04  1.00000000E-04
    1.00000000E-04  1.00000000E-04  1.00000000E-04  1.00000000E-04  1.00000000E-04  1.00000000E-04  1.00000000E-04  1.00000000E-04  1.00000000E-04  1.00000000E-04  1.00000000E-04  1.00000000E-04  1.00000000E-04  1.00000000E-04  1.00000000E-04  1.00000000E-04  1.00000000E-04  1.00000000E-04  1.00000000E-04  1.00000000E-04
    1.00000000E-04  1.00000000E-04  1.00000000E-04  1.00000000E-04  1.00000000E-04  1.00000000E-04  1.00000000E-04  1.00000000E-04  1.00000000E-04  1.00000000E-04  1.00000000E-04  1.00000000E-04  1.00000000E-04  1.00000000E-04  1.00000000E-04  1.00000000E-04  1.00000000E-04  1.00000000E-04  1.00000000E-04  1.00000000E-04
    1.00000000E-04  1.00000000E-04  1.00000000E-04  1.00000000E-04  1.00000000E-04  1.00000000E-04  1.00000000E-04  1.00000000E-04  1.00000000E-04  1.00000000E-04  1.00000000E-04  1.00000000E-04  1.00000000E-04  1.00000000E-04  1.00000000E-04  1.00000000E-04  1.00000000E-04  1.00000000E-04  1.00000000E-04  1.00000000E-04
    1.00000000E-04  1.00000000E-04  1.00000000E-04  1.00000000E-04  1.00000000E-04  1.00000000E-04  1.00000000E-04  1.00000000E-04  1.00000000E-04  1.00000000E-04  1.00000000E-04  1.00000000E-04  1.00000000E-04  1.00000000E-04  1.00000000E-04  1.00000000E-04  1.00000000E-04       0.00360795       0.00216922       0.00397833
         0.00105775  1.00000000E-04  1.00000000E-04
    1.00000000E-04  1.00000000E-04  1.00000000E-04  1.00000000E-04  1.00000000E-04  1.00000000E-04  1.00000000E-04  1.00000000E-04  1.00000000E-04  1.00000000E-04  1.00000000E-04  1.00000000E-04  1.00000000E-04  1.00000000E-04  1.00000000E-04  1.00000000E-04  1.00000000E-04  1.00000000E-04  1.00000000E-04  1.00000000E-04
    1.00000000E-04  1.00000000E-04  1.00000000E-04  1.00000000E-04  1.00000000E-04  1.00000000E-04  1.00000000E-04  1.00000000E-04  1.00000000E-04  1.00000000E-04  1.00000000E-04  1.00000000E-04  1.00000000E-04  1.00000000E-04  1.00000000E-04  1.00000000E-04  1.00000000E-04  1.00000000E-04  1.00000000E-04  1.00000000E-04
    1.00000000E-04  1.00000000E-04  1.00000000E-04  1.00000000E-04  1.00000000E-04  1.00000000E-04  1.00000000E-04  1.00000000E-04  1.00000000E-04  1.00000000E-04  1.00000000E-04  1.00000000E-04  1.00000000E-04  1.00000000E-04  1.00000000E-04  1.00000000E-04  1.00000000E-04  1.00000000E-04  1.00000000E-04  1.00000000E-04
    1.00000000E-04  1.00000000E-04  1.00000000E-04  1.00000000E-04  1.00000000E-04  1.00000000E-04  1.00000000E-04  1.00000000E-04  1.00000000E-04  1.00000000E-04  1.00000000E-04  1.00000000E-04  1.00000000E-04  1.00000000E-04  1.00000000E-04  1.00000000E-04  1.00000000E-04  1.00000000E-04  1.00000000E-04  1.00000000E-04
    1.00000000E-04  1.00000000E-04  1.00000000E-04  1.00000000E-04  1.00000000E-04  1.00000000E-04  1.00000000E-04  1.00000000E-04  1.00000000E-04  1.00000000E-04  1.00000000E-04  1.00000000E-04  1.00000000E-04  1.00000000E-04  1.00000000E-04       0.00600659       0.00523172       0.00525124       0.00396225       0.00555996
         0.00517993  1.00000000E-04  1.00000000E-04
    1.00000000E-04  1.00000000E-04  1.00000000E-04  1.00000000E-04  1.00000000E-04  1.00000000E-04  1.00000000E-04  1.00000000E-04  1.00000000E-04  1.00000000E-04  1.00000000E-04  1.00000000E-04  1.00000000E-04  1.00000000E-04  1.00000000E-04  1.00000000E-04  1.00000000E-04  1.00000000E-04  1.00000000E-04  1.00000000E-04
    1.00000000E-04  1.00000000E-04  1.00000000E-04  1.00000000E-04  1.00000000E-04  1.00000000E-04  1.00000000E-04  1.00000000E-04  1.00000000E-04  1.00000000E-04  1.00000000E-04  1.00000000E-04  1.00000000E-04  1.00000000E-04  1.00000000E-04  1.00000000E-04  1.00000000E-04  1.00000000E-04  1.00000000E-04  1.00000000E-04
    1.00000000E-04  1.00000000E-04  1.00000000E-04  1.00000000E-04  1.00000000E-04  1.00000000E-04  1.00000000E-04  1.00000000E-04  1.00000000E-04  1.00000000E-04  1.00000000E-04  1.00000000E-04  1.00000000E-04  1.00000000E-04  1.00000000E-04  1.00000000E-04  1.00000000E-04  1.00000000E-04  1.00000000E-04  1.00000000E-04
    1.00000000E-04  1.00000000E-04  1.00000000E-04  1.00000000E-04  1.00000000E-04  1.00000000E-04  1.00000000E-04  1.00000000E-04  1.00000000E-04  1.00000000E-04  1.00000000E-04  1.00000000E-04  1.00000000E-04  1.00000000E-04  1.00000000E-04  1.00000000E-04  1.00000000E-04  1.00000000E-04  1.00000000E-04  1.00000000E-04
    1.00000000E-04  1.00000000E-04  1.00000000E-04  1.00000000E-04  1.00000000E-04  1.00000000E-04  1.00000000E-04  1.00000000E-04  1.00000000E-04  1.00000000E-04  1.00000000E-04  1.00000000E-04  1.00000000E-04  1.00000000E-04  1.00000000E-04       0.00323786       0.00597139       0.00431066       0.00513344       0.00462110
         0.00248474  1.00000000E-04  1.00000000E-04
    1.00000000E-04  1.00000000E-04  1.00000000E-04  1.00000000E-04  1.00000000E-04  1.00000000E-04  1.00000000E-04  1.00000000E-04  1.00000000E-04  1.00000000E-04  1.00000000E-04  1.00000000E-04  1.00000000E-04  1.00000000E-04  1.00000000E-04  1.00000000E-04  1.00000000E-04  1.00000000E-04  1.00000000E-04  1.00000000E-04
    1.00000000E-04  1.00000000E-04  1.00000000E-04  1.00000000E-04  1.00000000E-04  1.00000000E-04  1.00000000E-04  1.00000000E-04  1.00000000E-04  1.00000000E-04  1.00000000E-04  1.00000000E-04  1.00000000E-04  1.00000000E-04  1.00000000E-04  1.00000000E-04  1.00000000E-04  1.00000000E-04  1.00000000E-04  1.00000000E-04
    1.00000000E-04  1.00000000E-04  1.00000000E-04  1.00000000E-04  1.00000000E-04  1.00000000E-04  1.00000000E-04  1.00000000E-04  1.00000000E-04  1.00000000E-04  1.00000000E-04  1.00000000E-04  1.00000000E-04  1.00000000E-04  1.00000000E-04  1.00000000E-04  1.00000000E-04  1.00000000E-04  1.00000000E-04  1.00000000E-04
    1.00000000E-04  1.00000000E-04  1.00000000E-04  1.00000000E-04  1.00000000E-04  1.00000000E-04  1.00000000E-04  1.00000000E-04  1.00000000E-04  1.00000000E-04  1.00000000E-04  1.00000000E-04  1.00000000E-04  1.00000000E-04  1.00000000E-04  1.00000000E-04  1.00000000E-04  1.00000000E-04  1.00000000E-04  1.00000000E-04
    1.00000000E-04  1.00000000E-04  1.00000000E-04  1.00000000E-04  1.00000000E-04  1.00000000E-04  1.00000000E-04  1.00000000E-04  1.00000000E-04  1.00000000E-04  1.00000000E-04  1.00000000E-04  1.00000000E-04  1.00000000E-04  1.00000000E-04       0.00271926       0.00466713       0.00479561       0.00686656  4.76908828E-08
    1.00000000E-04  1.00000000E-04  1.00000000E-04
    1.00000000E-04  1.00000000E-04  1.00000000E-04  1.00000000E-04  1.00000000E-04  1.00000000E-04  1.00000000E-04  1.00000000E-04  1.00000000E-04  1.00000000E-04  1.00000000E-04  1.00000000E-04  1.00000000E-04  1.00000000E-04  1.00000000E-04  1.00000000E-04  1.00000000E-04  1.00000000E-04  1.00000000E-04  1.00000000E-04
    1.00000000E-04  1.00000000E-04  1.00000000E-04  1.00000000E-04  1.00000000E-04  1.00000000E-04  1.00000000E-04  1.00000000E-04  1.00000000E-04  1.00000000E-04  1.00000000E-04  1.00000000E-04  1.00000000E-04  1.00000000E-04  1.00000000E-04  1.00000000E-04  1.00000000E-04  1.00000000E-04  1.00000000E-04  1.00000000E-04
    1.00000000E-04  1.00000000E-04  1.00000000E-04  1.00000000E-04  1.00000000E-04  1.00000000E-04  1.00000000E-04  1.00000000E-04  1.00000000E-04  1.00000000E-04  1.00000000E-04  1.00000000E-04  1.00000000E-04  1.00000000E-04  1.00000000E-04  1.00000000E-04  1.00000000E-04  1.00000000E-04  1.00000000E-04  1.00000000E-04
    1.00000000E-04  1.00000000E-04  1.00000000E-04  1.00000000E-04  1.00000000E-04  1.00000000E-04  1.00000000E-04  1.00000000E-04  1.00000000E-04  1.00000000E-04  1.00000000E-04  1.00000000E-04  1.00000000E-04  1.00000000E-04  1.00000000E-04  1.00000000E-04  1.00000000E-04  1.00000000E-04  1.00000000E-04  1.00000000E-04
    1.00000000E-04  1.00000000E-04  1.00000000E-04  1.00000000E-04  1.00000000E-04  1.00000000E-04  1.00000000E-04  1.00000000E-04  1.00000000E-04  1.00000000E-04  1.00000000E-04  1.00000000E-04  1.00000000E-04  2.26691033E-08  5.07623012E-08  5.38890613E-08       0.00289718       0.00433971       0.00125205  5.67164333E-08
    1.00000000E-04  1.00000000E-04  1.00000000E-04
    1.00000000E-04  1.00000000E-04  1.00000000E-04  1.00000000E-04  1.00000000E-04  1.00000000E-04  1.00000000E-04  1.00000000E-04  1.00000000E-04  1.00000000E-04  1.00000000E-04  1.00000000E-04  1.00000000E-04  1.00000000E-04  1.00000000E-04  1.00000000E-04  1.00000000E-04  1.00000000E-04  1.00000000E-04  1.00000000E-04
    1.00000000E-04  1.00000000E-04  1.00000000E-04  1.00000000E-04  1.00000000E-04  1.00000000E-04  1.00000000E-04  1.00000000E-04  1.00000000E-04  1.00000000E-04  1.00000000E-04  1.00000000E-04  1.00000000E-04  1.00000000E-04  1.00000000E-04  1.00000000E-04  1.00000000E-04  1.00000000E-04  1.00000000E-04  1.00000000E-04
    1.00000000E-04  1.00000000E-04  1.00000000E-04  1.00000000E-04  1.00000000E-04  1.00000000E-04  1.00000000E-04  1.00000000E-04  1.00000000E-04  1.00000000E-04  1.00000000E-04  1.00000000E-04  1.00000000E-04  1.00000000E-04  1.00000000E-04  1.00000000E-04  1.00000000E-04  1.00000000E-04  1.00000000E-04  1.00000000E-04
    1.00000000E-04  1.00000000E-04  1.00000000E-04  1.00000000E-04  1.00000000E-04  1.00000000E-04  1.00000000E-04  1.00000000E-04  1.00000000E-04  1.00000000E-04  1.00000000E-04  1.00000000E-04  1.00000000E-04  1.00000000E-04  1.00000000E-04  1.00000000E-04  1.00000000E-04  1.00000000E-04  1.00000000E-04  1.00000000E-04
    1.00000000E-04  1.00000000E-04  1.00000000E-04  1.00000000E-04  1.00000000E-04  1.00000000E-04  1.00000000E-04  1.00000000E-04  1.00000000E-04  1.00000000E-04  1.00000000E-04  1.00000000E-04  2.21251421E-08  5.41064570E-08  3.94155630E-08  3.73292998E-08  3.71748082E-08  5.75599944E-08  3.38958885E-08  4.23611441E-08
    1.00000000E-04  1.00000000E-04  1.00000000E-04
    1.00000000E-04  1.00000000E-04  1.00000000E-04  1.00000000E-04  1.00000000E-04  1.00000000E-04  1.00000000E-04  1.00000000E-04  1.00000000E-04  1.00000000E-04  1.00000000E-04  1.00000000E-04  1.00000000E-04  1.00000000E-04  1.00000000E-04  1.00000000E-04  1.00000000E-04  1.00000000E-04  1.00000000E-04  1.00000000E-04
    1.00000000E-04  1.00000000E-04  1.00000000E-04  1.00000000E-04  1.00000000E-04  1.00000000E-04  1.00000000E-04  1.00000000E-04  1.00000000E-04  1.00000000E-04  1.00000000E-04  1.00000000E-04  1.00000000E-04  1.00000000E-04  1.00000000E-04  1.00000000E-04  1.00000000E-04  1.00000000E-04  1.00000000E-04  1.00000000E-04
    1.00000000E-04  1.00000000E-04  1.00000000E-04  1.00000000E-04  1.00000000E-04  1.00000000E-04  1.00000000E-04  1.00000000E-04  1.00000000E-04  1.00000000E-04  1.00000000E-04  1.00000000E-04  1.00000000E-04  1.00000000E-04  1.00000000E-04  1.00000000E-04  1.00000000E-04  1.00000000E-04  1.00000000E-04  1.00000000E-04
    1.00000000E-04  1.00000000E-04  1.00000000E-04  1.00000000E-04  1.00000000E-04  1.00000000E-04  1.00000000E-04  1.00000000E-04  1.00000000E-04  1.00000000E-04  1.00000000E-04  1.00000000E-04  1.00000000E-04  1.00000000E-04  1.00000000E-04  1.00000000E-04  1.00000000E-04  1.00000000E-04  1.00000000E-04  1.00000000E-04
    1.00000000E-04  1.00000000E-04  1.00000000E-04  1.00000000E-04  1.00000000E-04  1.00000000E-04  1.00000000E-04  1.00000000E-04  1.00000000E-04  1.00000000E-04  1.00000000E-04       0.00110864  4.98251771E-08  4.79503886E-08  4.15278699E-08  4.66022268E-08  4.76478612E-08  5.21938424E-08  5.15894107E-08  5.40155368E-08
    1.00000000E-04  1.00000000E-04  1.00000000E-04
    1.00000000E-04  1.00000000E-04  1.00000000E-04  1.00000000E-04  1.00000000E-04  1.00000000E-04  1.00000000E-04  1.00000000E-04  1.00000000E-04  1.00000000E-04  1.00000000E-04  1.00000000E-04  1.00000000E-04  1.00000000E-04  1.00000000E-04  1.00000000E-04  1.00000000E-04  1.00000000E-04  1.00000000E-04  1.00000000E-04
    1.00000000E-04  1.00000000E-04  1.00000000E-04  1.00000000E-04  1.00000000E-04  1.00000000E-04  1.00000000E-04  1.00000000E-04  1.00000000E-04  1.00000000E-04  1.00000000E-04  1.00000000E-04  1.00000000E-04  1.00000000E-04  1.00000000E-04  1.00000000E-04  1.00000000E-04  1.00000000E-04  1.00000000E-04  1.00000000E-04
    1.00000000E-04  1.00000000E-04  1.00000000E-04  1.00000000E-04  1.00000000E-04  1.00000000E-04  1.00000000E-04  1.00000000E-04  1.00000000E-04  1.00000000E-04  1.00000000E-04  1.00000000E-04  1.00000000E-04  1.00000000E-04  1.00000000E-04  1.00000000E-04  1.00000000E-04  1.00000000E-04  1.00000000E-04  1.00000000E-04
    1.00000000E-04  1.00000000E-04  1.00000000E-04  1.00000000E-04  1.00000000E-04  1.00000000E-04  1.00000000E-04  1.00000000E-04  1.00000000E-04  1.00000000E-04  1.00000000E-04  1.00000000E-04  1.00000000E-04  1.00000000E-04  1.00000000E-04  1.00000000E-04  1.00000000E-04  1.00000000E-04  1.00000000E-04  1.00000000E-04