BEGIN options
END options

BEGIN timing
  TDIS6  first2D_mf6.tdis
END timing

BEGIN models
  gwf6  import_MPS.nam  import_MPS
END models

BEGIN exchanges
END exchanges

BEGIN solutiongroup  1
  ims6  first2D_mf6.ims  import_MPS
END solutiongroup  1

