BEGIN options
  SAVE_FLOWS
END options

BEGIN dimensions
  MAXBOUND  89
END dimensions

BEGIN period  1
  1 97 43     123.80886426
  1 97 44     123.27239344
  1 98 44     122.30227910
  1 98 45     120.82980816
  1 97 45     117.96159525
  1 98 46     112.62092440
  1 98 47     108.37225384
  1 99 47     107.57521684
  1 99 48     106.83268619
  1 98 48     105.90582323
  1 98 49     102.75984231
  1 98 50      99.00000000
  1 98 51      97.43350774
  1 98 52      95.65703885
  1 97 52      93.83239885
  1 97 53      88.01597251
  1 96 53      86.70284457
  1 96 54      83.11823424
  1 95 54      82.23581428
  1 95 55      81.42170895
  1 95 56      78.02708994
  1 95 57      76.48058679
  1 96 57      75.51126003
  1 96 58      73.20804281
  1 95 58      71.16110464
  1 94 58      69.00000000
  1 94 59      69.00000000
  1 93 59      67.69628725
  1 93 60      64.00000000
  1 93 61      63.00710324
  1 92 61      58.42046759
  1 92 60      57.70821311
  1 91 60      57.50795458
  1 91 61      56.44675159
  1 90 61      53.33750051
  1 89 61      52.48540001
  1 89 62      51.44522414
  1 88 62      50.37255676
  1 88 63      48.45436811
  1 87 63      47.42808066
  1 87 64      46.78518449
  1 86 64      45.97980430
  1 85 64      42.41973516
  1 84 64      38.40263419
  1 84 65      37.38506717
  1 83 65      36.16847693
  1 83 66      33.66711234
  1 82 66      33.07665775
  1 82 67      32.36404621
  1 82 68      31.47331192
  1 82 69      30.68690621
  1 81 69      30.14453578
  1 81 70      28.46895595
  1 80 70      27.83043122
  1 80 71      27.15435177
  1 80 72      26.09224760
  1 80 73      25.11744351
  1 80 74      23.51636953
  1 79 74      22.78418515
  1 79 75      21.80096738
  1 79 76      20.73290494
  1 80 76      19.94951625
  1 80 77      18.68619409
  1 80 78      17.53355061
  1 81 78      16.66657678
  1 81 79      15.34615172
  1 81 80      12.31130315
  1 81 81      10.92496078
  1 80 81       8.69055512
  1 80 82       8.22595022
  1 79 82       7.83609926
  1 79 83       7.30660939
  1 78 83       6.89542979
  1 78 84       6.45291163
  1 78 85       5.96135611
  1 79 85       5.58759742
  1 79 86       5.04633255
  1 79 87       4.37570497
  1 79 88       3.69605379
  1 78 88       3.32328153
  1 78 89       2.85277383
  1 77 89       2.37824794
  1 77 90       1.95690668
  1 76 90       1.44462281
  1 76 91       1.01728560
  1 75 91       0.51277419
  1 75 92       0.08400470
  1 74 92      -0.42179990
  1 78 96       0.00000000
END period  1

