BEGIN options
  SAVE_FLOWS
END options

BEGIN dimensions
  MAXBOUND  89
END dimensions

BEGIN period  1
  1 97 43     122.80886426
  1 97 44     122.27239344
  1 98 44     121.30227910
  1 98 45     119.82980816
  1 97 45     116.96159525
  1 98 46     111.62092440
  1 98 47     107.37225384
  1 99 47     106.57521684
  1 99 48     105.83268619
  1 98 48     104.90582323
  1 98 49     101.75984231
  1 98 50      98.00000000
  1 98 51      96.43350774
  1 98 52      94.65703885
  1 97 52      92.83239885
  1 97 53      87.01597251
  1 96 53      85.70284457
  1 96 54      82.11823424
  1 95 54      81.23581428
  1 95 55      80.42170895
  1 95 56      77.02708994
  1 95 57      75.48058679
  1 96 57      74.51126003
  1 96 58      72.20804281
  1 95 58      70.16110464
  1 94 58      68.00000000
  1 94 59      68.00000000
  1 93 59      66.69628725
  1 93 60      63.00000000
  1 93 61      62.00710324
  1 92 61      57.42046759
  1 92 60      56.70821311
  1 91 60      56.50795458
  1 91 61      55.44675159
  1 90 61      52.33750051
  1 89 61      51.48540001
  1 89 62      50.44522414
  1 88 62      49.37255676
  1 88 63      47.45436811
  1 87 63      46.42808066
  1 87 64      45.78518449
  1 86 64      44.97980430
  1 85 64      41.41973516
  1 84 64      37.40263419
  1 84 65      36.38506717
  1 83 65      35.16847693
  1 83 66      32.66711234
  1 82 66      32.07665775
  1 82 67      31.36404621
  1 82 68      30.47331192
  1 82 69      29.68690621
  1 81 69      29.14453578
  1 81 70      27.46895595
  1 80 70      26.83043122
  1 80 71      26.15435177
  1 80 72      25.09224760
  1 80 73      24.11744351
  1 80 74      22.51636953
  1 79 74      21.78418515
  1 79 75      20.80096738
  1 79 76      19.73290494
  1 80 76      18.94951625
  1 80 77      17.68619409
  1 80 78      16.53355061
  1 81 78      15.66657678
  1 81 79      14.34615172
  1 81 80      11.31130315
  1 81 81       9.92496078
  1 80 81       7.69055512
  1 80 82       7.22595022
  1 79 82       6.83609926
  1 79 83       6.30660939
  1 78 83       5.89542979
  1 78 84       5.45291163
  1 78 85       4.96135611
  1 79 85       4.58759742
  1 79 86       4.04633255
  1 79 87       3.37570497
  1 79 88       2.69605379
  1 78 88       2.32328153
  1 78 89       1.85277383
  1 77 89       1.37824794
  1 77 90       0.95690668
  1 76 90       0.44462281
  1 76 91       0.01728560
  1 75 91      -0.48722581
  1 75 92      -0.91599530
  1 74 92      -1.42179990
  1 78 96       0.00000000
END period  1

