BEGIN options
  SAVE_FLOWS
END options

BEGIN dimensions
  MAXBOUND  124
END dimensions

BEGIN period  1
  1 3 98       0.00000000
  1 3 99       0.00000000
  1 3 100       0.00000000
  1 4 100       0.00000000
  1 4 101       0.00000000
  1 5 101       0.00000000
  1 5 102       0.00000000
  1 6 102       0.00000000
  1 7 102       0.00000000
  1 8 101       0.00000000
  1 8 102       0.00000000
  1 9 101       0.00000000
  1 10 101       0.00000000
  1 11 101       0.00000000
  1 12 101       0.00000000
  1 13 100       0.00000000
  1 13 101       0.00000000
  1 14 100       0.00000000
  1 15 100       0.00000000
  1 16 100       0.00000000
  1 17 100       0.00000000
  1 18 100       0.00000000
  1 19 100       0.00000000
  1 20 100       0.00000000
  1 21 99       0.00000000
  1 21 100       0.00000000
  1 22 99       0.00000000
  1 23 99       0.00000000
  1 24 99       0.00000000
  1 25 99       0.00000000
  1 26 99       0.00000000
  1 27 99       0.00000000
  1 28 98       0.00000000
  1 28 99       0.00000000
  1 29 98       0.00000000
  1 30 98       0.00000000
  1 31 98       0.00000000
  1 32 98       0.00000000
  1 33 98       0.00000000
  1 34 98       0.00000000
  1 35 98       0.00000000
  1 36 98       0.00000000
  1 37 98       0.00000000
  1 38 98       0.00000000
  1 39 98       0.00000000
  1 40 98       0.00000000
  1 41 98       0.00000000
  1 42 98       0.00000000
  1 43 98       0.00000000
  1 44 98       0.00000000
  1 45 98       0.00000000
  1 46 98       0.00000000
  1 47 98       0.00000000
  1 48 98       0.00000000
  1 49 98       0.00000000
  1 50 98       0.00000000
  1 51 98       0.00000000
  1 52 98       0.00000000
  1 53 98       0.00000000
  1 54 98       0.00000000
  1 55 98       0.00000000
  1 56 98       0.00000000
  1 57 98       0.00000000
  1 58 98       0.00000000
  1 59 98       0.00000000
  1 60 98       0.00000000
  1 61 98       0.00000000
  1 62 98       0.00000000
  1 63 98       0.00000000
  1 64 98       0.00000000
  1 65 98       0.00000000
  1 66 97       0.00000000
  1 66 98       0.00000000
  1 67 97       0.00000000
  1 68 97       0.00000000
  1 69 97       0.00000000
  1 70 97       0.00000000
  1 71 97       0.00000000
  1 72 97       0.00000000
  1 73 97       0.00000000
  1 74 97       0.00000000
  1 75 97       0.00000000
  1 76 97       0.00000000
  1 77 97       0.00000000
  1 78 97       0.00000000
  1 79 97       0.00000000
  1 80 97       0.00000000
  1 81 97       0.00000000
  1 82 97       0.00000000
  1 83 97       0.00000000
  1 84 97       0.00000000
  1 85 97       0.00000000
  1 86 97       0.00000000
  1 87 97       0.00000000
  1 87 98       0.00000000
  1 88 98       0.00000000
  1 89 98       0.00000000
  1 90 98       0.00000000
  1 91 98       0.00000000
  1 92 98       0.00000000
  1 93 98       0.00000000
  1 93 99       0.00000000
  1 94 99       0.00000000
  1 95 99       0.00000000
  1 96 99       0.00000000
  1 97 99       0.00000000
  1 98 99       0.00000000
  1 99 99       0.00000000
  1 100 99       0.00000000
  1 101 99       0.00000000
  1 102 99       0.00000000
  1 103 99       0.00000000
  1 104 99       0.00000000
  1 105 99       0.00000000
  1 106 99       0.00000000
  1 106 100       0.00000000
  1 107 100       0.00000000
  1 108 100       0.00000000
  1 109 100       0.00000000
  1 110 100       0.00000000
  1 110 101       0.00000000
  1 111 101       0.00000000
  1 112 101       0.00000000
  1 112 102       0.00000000
END period  1

