BEGIN options
  SAVE_FLOWS
END options

BEGIN dimensions
  MAXBOUND  50
END dimensions

BEGIN period  1
  1 123 37     129.77908440
  1 123 38     128.00764027
  1 123 39     124.85309984
  1 123 40     121.69765285
  1 123 43     112.56079429
  1 122 43     110.11087841
  1 121 43     106.96073874
  1 120 43     104.38440924
  1 120 44     101.87578556
  1 120 45      98.82148526
  1 120 46      95.78374298
  1 120 47      92.74190145
  1 120 48      89.71227845
  1 103 72      29.61632786
  1 102 72      28.36133083
  1 101 72      27.35148429
  1 101 73      25.04505626
  1 102 73      24.36799176
  1 102 74      23.60648790
  1 102 75      22.24444993
  1 102 76      21.11001300
  1 101 76      20.16531546
  1 101 77      19.46875838
  1 100 77      18.45139993
  1 99 77      17.56904035
  1 99 78      16.76020498
  1 99 79      15.46808239
  1 99 80      14.22509298
  1 99 81      12.98712116
  1 99 82      11.76110511
  1 99 83      10.52850297
  1 99 84       9.30677997
  1 99 85       8.12289867
  1 98 85       7.49837527
  1 98 86       6.83331755
  1 98 87       4.81242997
  1 98 88       4.43657642
  1 98 89       4.11340792
  1 99 89       3.90835179
  1 99 90       3.63441087
  1 99 91       3.24269142
  1 99 92       2.86633792
  1 99 93       2.48416878
  1 99 94       2.09147168
  1 99 95       1.81644599
  1 98 95       1.61425009
  1 98 96       1.29457223
  1 98 97       0.90937072
  1 98 98       0.60091817
  1 97 98       0.40106515
END period  1

