BEGIN options
  SAVE_FLOWS
END options

BEGIN dimensions
  MAXBOUND  50
END dimensions

BEGIN period  1
  1 123 37     130.79231589
  1 123 38     129.12697038
  1 123 39     126.16136755
  1 123 40     123.19491246
  1 123 43     114.60529561
  1 122 43     112.30211465
  1 121 43     109.34064901
  1 120 43     106.91862582
  1 120 44     104.56025329
  1 120 45     101.68888683
  1 120 46      98.83308665
  1 120 47      95.97343275
  1 120 48      93.12526556
  1 103 72      31.01970452
  1 102 72      29.63544444
  1 101 72      28.52158502
  1 101 73      26.04505626
  1 102 73      25.36799176
  1 102 74      24.60648790
  1 102 75      23.24444993
  1 102 76      22.11001300
  1 101 76      21.16531546
  1 101 77      20.46875838
  1 100 77      19.45139993
  1 99 77      18.56904035
  1 99 78      17.76020498
  1 99 79      16.46808239
  1 99 80      15.22509298
  1 99 81      13.98712116
  1 99 82      12.76110511
  1 99 83      11.52850297
  1 99 84      10.30677997
  1 99 85       9.12289867
  1 98 85       8.49837527
  1 98 86       7.83331755
  1 98 87       5.77415037
  1 98 88       5.32159201
  1 98 89       4.93247077
  1 99 89       4.68556644
  1 99 90       4.35571921
  1 99 91       3.88405701
  1 99 92       3.43089668
  1 99 93       2.97073384
  1 99 94       2.49789447
  1 99 95       2.16674109
  1 98 95       1.92328072
  1 98 96       1.53836248
  1 98 97       1.07454842
  1 98 98       0.70314637
  1 97 98       0.46250702
END period  1

