BEGIN options
  SAVE_FLOWS
END options

BEGIN dimensions
  MAXBOUND  133
END dimensions

BEGIN period  1
  1 77 2     162.27645257
  1 77 3     156.19940785
  1 77 4     152.99944455
  1 77 5     151.02141349
  1 77 6     149.06791349
  1 77 7     147.19798981
  1 76 7     145.97994364
  1 76 8     144.94530398
  1 75 7     143.90751512
  1 75 8     142.71319001
  1 74 8     141.28371575
  1 74 9     139.83682076
  1 73 9     138.50242407
  1 73 10     137.06525141
  1 73 11     135.08484418
  1 73 12     133.07357558
  1 73 13     131.52178713
  1 72 13     128.08686930
  1 72 14     127.01813007
  1 71 14     124.35285693
  1 70 14     123.10908065
  1 70 15     122.21002321
  1 69 15     121.40302364
  1 69 16     120.46178822
  1 68 16     117.89474787
  1 68 17     113.36252041
  1 68 18     112.10757579
  1 68 19     110.86172075
  1 68 20     107.87221713
  1 67 20     106.63261650
  1 67 21     104.00000000
  1 67 22     102.97490357
  1 67 23     101.90489572
  1 66 23      98.18650683
  1 66 24      96.81524359
  1 66 25      96.06417796
  1 67 25      95.49782110
  1 67 26      94.00000000
  1 67 27      94.00000000
  1 67 28      94.00000000
  1 68 28      93.15373067
  1 68 29      89.00000000
  1 68 30      89.00000000
  1 68 31      87.78323031
  1 68 32      86.24240487
  1 69 32      83.31425283
  1 69 33      81.69404633
  1 69 34      78.21943079
  1 69 35      77.14895912
  1 70 35      76.18348528
  1 70 36      73.16482860
  1 70 37      71.50768889
  1 70 38      70.54177831
  1 71 38      67.86567340
  1 71 39      64.00000000
  1 71 40      64.00000000
  1 71 41      64.00000000
  1 71 42      62.82248167
  1 71 43      59.00000000
  1 71 44      58.21947828
  1 71 45      56.48467002
  1 71 46      54.00000000
  1 70 46      54.00000000
  1 71 47      53.27846466
  1 70 47      52.42676265
  1 70 48      51.48194946
  1 70 49      49.00000000
  1 70 50      49.00000000
  1 70 51      49.00000000
  1 70 52      48.43279983
  1 69 52      47.18092697
  1 69 53      44.00000000
  1 69 54      43.07301058
  1 69 55      39.83185170
  1 68 55      39.63513356
  1 68 56      39.44744898
  1 68 57      37.73337372
  1 68 58      34.00000000
  1 67 58      34.00000000
  1 67 59      34.00000000
  1 67 60      32.73984533
  1 67 61      29.00000000
  1 67 62      29.00000000
  1 67 63      29.00000000
  1 67 64      29.00000000
  1 66 64      29.00000000
  1 66 65      29.00000000
  1 66 66      28.16865581
  1 66 67      26.52448569
  1 66 68      25.55719812
  1 65 68      23.47357989
  1 65 69      22.30256608
  1 65 70      21.27909584
  1 64 70      20.60548985
  1 64 71      18.48551493
  1 64 72      17.48730768
  1 64 73      16.96258276
  1 63 73      16.45970993
  1 63 74      15.49715085
  1 63 75      14.51482920
  1 63 76      13.96688653
  1 62 76      12.75598942
  1 62 77      12.25028532
  1 62 78      11.72412107
  1 62 79      11.28587566
  1 63 79      11.01512593
  1 63 80      10.65912665
  1 63 81      10.14439424
  1 63 82       9.63120838
  1 63 83       9.14004283
  1 62 83       8.88318946
  1 63 84       8.59817678
  1 63 85       8.08081592
  1 63 86       7.61275807
  1 62 86       7.34006384
  1 62 87       7.02089941
  1 62 88       6.64022410
  1 63 88       6.34136347
  1 63 89       5.94179527
  1 64 89       5.61974073
  1 64 90       5.27326342
  1 63 90       5.00508260
  1 63 91       4.66260227
  1 62 91       4.26382901
  1 62 92       3.92492755
  1 62 93       3.47532867
  1 63 93       3.19999399
  1 63 94       2.79399576
  1 63 95       2.44392451
  1 64 95       2.14917675
  1 64 96       1.65446460
  1 63 96       1.36130035
  1 63 97       0.99258544
END period  1

