BEGIN options
  SAVE_FLOWS
END options

BEGIN dimensions
  MAXBOUND  133
END dimensions

BEGIN period  1
  1 77 2     161.27645257
  1 77 3     155.19940785
  1 77 4     151.99944455
  1 77 5     150.02141349
  1 77 6     148.06791349
  1 77 7     146.19798981
  1 76 7     144.97994364
  1 76 8     143.94530398
  1 75 7     142.90751512
  1 75 8     141.71319001
  1 74 8     140.28371575
  1 74 9     138.83682076
  1 73 9     137.50242407
  1 73 10     136.06525141
  1 73 11     134.08484418
  1 73 12     132.07357558
  1 73 13     130.52178713
  1 72 13     127.08686930
  1 72 14     126.01813007
  1 71 14     123.35285693
  1 70 14     122.10908065
  1 70 15     121.21002321
  1 69 15     120.40302364
  1 69 16     119.46178822
  1 68 16     116.89474787
  1 68 17     112.36252041
  1 68 18     111.10757579
  1 68 19     109.86172075
  1 68 20     106.87221713
  1 67 20     105.63261650
  1 67 21     103.00000000
  1 67 22     101.97490357
  1 67 23     100.90489572
  1 66 23      97.18650683
  1 66 24      95.81524359
  1 66 25      95.06417796
  1 67 25      94.49782110
  1 67 26      93.00000000
  1 67 27      93.00000000
  1 67 28      93.00000000
  1 68 28      92.15373067
  1 68 29      88.00000000
  1 68 30      88.00000000
  1 68 31      86.78323031
  1 68 32      85.24240487
  1 69 32      82.31425283
  1 69 33      80.69404633
  1 69 34      77.21943079
  1 69 35      76.14895912
  1 70 35      75.18348528
  1 70 36      72.16482860
  1 70 37      70.50768889
  1 70 38      69.54177831
  1 71 38      66.86567340
  1 71 39      63.00000000
  1 71 40      63.00000000
  1 71 41      63.00000000
  1 71 42      61.82248167
  1 71 43      58.00000000
  1 71 44      57.21947828
  1 71 45      55.48467002
  1 71 46      53.00000000
  1 70 46      53.00000000
  1 71 47      52.27846466
  1 70 47      51.42676265
  1 70 48      50.48194946
  1 70 49      48.00000000
  1 70 50      48.00000000
  1 70 51      48.00000000
  1 70 52      47.43279983
  1 69 52      46.18092697
  1 69 53      43.00000000
  1 69 54      42.07301058
  1 69 55      38.83185170
  1 68 55      38.63513356
  1 68 56      38.44744898
  1 68 57      36.73337372
  1 68 58      33.00000000
  1 67 58      33.00000000
  1 67 59      33.00000000
  1 67 60      31.73984533
  1 67 61      28.00000000
  1 67 62      28.00000000
  1 67 63      28.00000000
  1 67 64      28.00000000
  1 66 64      28.00000000
  1 66 65      28.00000000
  1 66 66      27.16865581
  1 66 67      25.52448569
  1 66 68      24.55719812
  1 65 68      22.47357989
  1 65 69      21.30256608
  1 65 70      20.27909584
  1 64 70      19.60548985
  1 64 71      17.48551493
  1 64 72      16.48730768
  1 64 73      15.96258276
  1 63 73      15.45970993
  1 63 74      14.49715085
  1 63 75      13.51482920
  1 63 76      12.96688653
  1 62 76      11.77490497
  1 62 77      11.30840274
  1 62 78      10.82302641
  1 62 79      10.41875352
  1 63 79      10.16899214
  1 63 80       9.84058970
  1 63 81       9.36575903
  1 63 82       8.89235502
  1 63 83       8.43926432
  1 62 83       8.20232206
  1 63 84       7.93940339
  1 63 85       7.46214802
  1 63 86       7.03037373
  1 62 86       6.77881859
  1 62 87       6.48439558
  1 62 88       6.13322998
  1 63 88       5.85753684
  1 63 89       5.48894292
  1 64 89       5.19185385
  1 64 90       4.87223525
  1 63 90       4.62484364
  1 63 91       4.30891217
  1 62 91       3.94105157
  1 62 92       3.62842154
  1 62 93       3.21367528
  1 63 93       2.95968438
  1 63 94       2.58515888
  1 63 95       2.26222493
  1 64 95       1.99032584
  1 64 96       1.53396347
  1 63 96       1.26352512
  1 63 97       0.92339277
END period  1

