BEGIN options
END options

BEGIN dimensions
  MAXBOUND  72
END dimensions

BEGIN period  1
  1 8 21      44.00000000       0.01000000
  1 9 21      31.00000000       0.01000000
  1 9 22      21.00000000       0.01000000
  1 10 23      24.00000000       0.01000000
  1 10 24      20.00000000       0.01000000
  1 10 25      18.00000000       0.01000000
  1 10 26      16.00000000       0.01000000
  1 10 27      13.00000000       0.01000000
  1 11 28      10.00000000       0.01000000
  1 11 29       9.00000000       0.01000000
  1 11 32       6.00000000       0.01000000
  1 12 30       8.00000000       0.01000000
  1 12 31       7.00000000       0.01000000
  1 17 26      25.00000000       0.01000000
  1 17 27      23.00000000       0.01000000
  1 17 28      21.00000000       0.01000000
  1 18 8     114.00000000       0.01000000
  1 18 9     106.00000000       0.01000000
  1 18 10      99.00000000       0.01000000
  1 18 22      41.00000000       0.01000000
  1 18 23      34.00000000       0.01000000
  1 18 24      32.00000000       0.01000000
  1 18 25      29.00000000       0.01000000
  1 19 6     120.00000000       0.01000000
  1 19 7     116.00000000       0.01000000
  1 19 11      97.00000000       0.01000000
  1 19 12      91.00000000       0.01000000
  1 19 13      84.00000000       0.01000000
  1 19 19      51.00000000       0.01000000
  1 19 20      47.00000000       0.01000000
  1 19 21      42.00000000       0.01000000
  1 19 22      51.00000000       0.01000000
  1 19 23      49.00000000       0.01000000
  1 19 24      38.00000000       0.01000000
  1 20 5     127.00000000       0.01000000
  1 20 13      84.00000000       0.01000000
  1 20 14      80.00000000       0.01000000
  1 20 15      75.00000000       0.01000000
  1 20 16      68.00000000       0.01000000
  1 20 17      64.00000000       0.01000000
  1 20 18      60.00000000       0.01000000
  1 20 19      66.00000000       0.01000000
  1 20 20      62.00000000       0.01000000
  1 20 21      56.00000000       0.01000000
  1 20 23      47.00000000       0.01000000
  1 20 24      43.00000000       0.01000000
  1 21 3     141.00000000       0.01000000
  1 21 4     130.00000000       0.01000000
  1 21 13      97.00000000       0.01000000
  1 21 14      94.00000000       0.01000000
  1 21 15      91.00000000       0.01000000
  1 21 16      85.00000000       0.01000000
  1 21 17      80.00000000       0.01000000
  1 21 18      75.00000000       0.01000000
  1 21 23      51.00000000       0.01000000
  1 22 1     163.00000000       0.01000000
  1 22 2     163.00000000       0.01000000
  1 22 3     157.00000000       0.01000000
  1 22 35       5.00000000       0.01000000
  1 23 29      19.00000000       0.01000000
  1 23 30      17.00000000       0.01000000
  1 23 32      13.00000000       0.01000000
  1 23 33       7.00000000       0.01000000
  1 23 34       5.00000000       0.01000000
  1 24 31      13.00000000       0.01000000
  1 31 30      25.00000000       0.01000000
  1 31 31      21.00000000       0.01000000
  1 31 32      18.00000000       0.01000000
  1 31 33      15.00000000       0.01000000
  1 32 28      32.00000000       0.01000000
  1 32 29      29.00000000       0.01000000
  1 33 27      37.00000000       0.01000000
END period  1

