BEGIN options
END options

BEGIN packages
  DIS6  DIS_Chabart.dis  dis
  IC6  DIS_Chabart.ic  ic
  NPF6  DIS_Chabart.npf  npf
END packages

