BEGIN options
END options

BEGIN dimensions
  MAXBOUND  13
END dimensions

BEGIN period  1
  5 3 27      11.00000000
  5 9 20      34.00000000
  5 11 20      45.00000000
  5 12 19      50.00000000
  5 15 16      85.00000000
  5 15 15      90.00000000
  5 23 8     115.00000000
  5 23 9     115.00000000
  5 25 11     115.00000000
  5 25 12     112.00000000
  5 26 12     115.00000000
  5 26 13     110.00000000
  5 27 13     112.00000000
END period  1

