BEGIN options
  READASARRAYS
END options

BEGIN period  1
  recharge
    INTERNAL  FACTOR  1.0
         0.00000000       0.00000000       0.00000000       0.00000000       0.00000000       0.00000000       0.00000000       0.00000000       0.00000000       0.00000000       0.00000000       0.00000000       0.00000000       0.00000000       0.00000000       0.00000000       0.00000000       0.00000000       0.00000000       0.00000000
         0.00000000       0.00000000       0.00000000       0.00000000       0.00000000       0.00000000       0.00000000       0.00000000  3.80517504E-09  1.90258752E-09  1.90258752E-09  1.42694064E-09  1.42694064E-09       0.00000000       0.00000000       0.00000000       0.00000000       0.00000000       0.00000000       0.00000000
         0.00000000       0.00000000
         0.00000000       0.00000000       0.00000000       0.00000000       0.00000000       0.00000000       0.00000000       0.00000000       0.00000000       0.00000000       0.00000000       0.00000000       0.00000000       0.00000000       0.00000000       0.00000000       0.00000000       0.00000000       0.00000000       0.00000000
         0.00000000       0.00000000       0.00000000       0.00000000       0.00000000       0.00000000       0.00000000  3.80517504E-09  1.90258752E-09  1.90258752E-09  1.90258752E-09  1.42694064E-09  1.42694064E-09       0.00000000       0.00000000       0.00000000       0.00000000       0.00000000       0.00000000       0.00000000
         0.00000000       0.00000000
         0.00000000       0.00000000       0.00000000       0.00000000       0.00000000       0.00000000       0.00000000       0.00000000       0.00000000       0.00000000       0.00000000       0.00000000       0.00000000       0.00000000       0.00000000       0.00000000       0.00000000       0.00000000       0.00000000       0.00000000
         0.00000000       0.00000000       0.00000000       0.00000000       0.00000000       0.00000000  3.80517504E-09  1.90258752E-09  1.90258752E-09  1.90258752E-09  1.90258752E-09  1.42694064E-09  1.90258752E-09       0.00000000       0.00000000       0.00000000       0.00000000       0.00000000       0.00000000       0.00000000
         0.00000000       0.00000000
         0.00000000       0.00000000       0.00000000       0.00000000       0.00000000       0.00000000       0.00000000       0.00000000       0.00000000       0.00000000       0.00000000       0.00000000       0.00000000       0.00000000       0.00000000       0.00000000       0.00000000       0.00000000       0.00000000       0.00000000
         0.00000000       0.00000000  3.80517504E-09  3.80517504E-09  3.80517504E-09  3.80517504E-09  3.80517504E-09  1.90258752E-09  1.90258752E-09  1.90258752E-09  1.90258752E-09  1.90258752E-09  1.90258752E-09  1.90258752E-09  1.90258752E-09  1.90258752E-09       0.00000000       0.00000000       0.00000000       0.00000000
         0.00000000       0.00000000
         0.00000000       0.00000000       0.00000000       0.00000000       0.00000000       0.00000000       0.00000000       0.00000000       0.00000000       0.00000000       0.00000000       0.00000000       0.00000000       0.00000000       0.00000000       0.00000000       0.00000000       0.00000000       0.00000000       0.00000000
         0.00000000  3.80517504E-09  3.80517504E-09  3.80517504E-09  3.80517504E-09  3.80517504E-09  3.80517504E-09  3.80517504E-09  3.80517504E-09  3.80517504E-09  3.80517504E-09  1.90258752E-09  1.90258752E-09  1.90258752E-09  1.90258752E-09  1.90258752E-09       0.00000000       0.00000000       0.00000000       0.00000000
         0.00000000       0.00000000
         0.00000000       0.00000000       0.00000000       0.00000000       0.00000000       0.00000000       0.00000000       0.00000000       0.00000000       0.00000000       0.00000000       0.00000000       0.00000000       0.00000000       0.00000000       0.00000000       0.00000000       0.00000000       0.00000000       0.00000000
    3.80517504E-09  3.80517504E-09  3.80517504E-09  3.80517504E-09  3.80517504E-09  3.80517504E-09  3.80517504E-09  3.80517504E-09  3.80517504E-09  3.80517504E-09  3.80517504E-09  1.90258752E-09  1.90258752E-09  1.90258752E-09  1.90258752E-09  1.90258752E-09       0.00000000       0.00000000       0.00000000       0.00000000
         0.00000000       0.00000000
         0.00000000       0.00000000       0.00000000       0.00000000       0.00000000       0.00000000       0.00000000       0.00000000       0.00000000       0.00000000       0.00000000       0.00000000       0.00000000       0.00000000       0.00000000       0.00000000       0.00000000       0.00000000       0.00000000       0.00000000
    3.80517504E-09  3.80517504E-09  3.80517504E-09  3.80517504E-09  3.80517504E-09  3.80517504E-09  3.80517504E-09  3.80517504E-09  3.80517504E-09  3.80517504E-09  1.90258752E-09  1.90258752E-09  1.90258752E-09  1.90258752E-09  1.90258752E-09  1.90258752E-09  1.90258752E-09  1.90258752E-09       0.00000000       0.00000000
         0.00000000       0.00000000
         0.00000000       0.00000000       0.00000000       0.00000000       0.00000000       0.00000000       0.00000000       0.00000000       0.00000000       0.00000000       0.00000000       0.00000000       0.00000000       0.00000000       0.00000000       0.00000000       0.00000000       0.00000000       0.00000000       0.00000000
    3.80517504E-09  3.80517504E-09  3.80517504E-09  1.42694064E-09  1.42694064E-09  3.80517504E-09  3.80517504E-09  3.80517504E-09  3.80517504E-09  3.80517504E-09  1.90258752E-09  1.90258752E-09  1.90258752E-09  1.90258752E-09  1.90258752E-09  1.90258752E-09  1.90258752E-09  1.90258752E-09       0.00000000       0.00000000
         0.00000000       0.00000000
         0.00000000       0.00000000       0.00000000       0.00000000       0.00000000       0.00000000       0.00000000       0.00000000       0.00000000       0.00000000       0.00000000       0.00000000       0.00000000       0.00000000       0.00000000       0.00000000       0.00000000       0.00000000       0.00000000  1.42694064E-09
    1.42694064E-09  1.42694064E-09  1.42694064E-09  1.42694064E-09  3.80517504E-09  3.80517504E-09  3.80517504E-09  3.80517504E-09  3.80517504E-09  3.80517504E-09  1.90258752E-09  1.90258752E-09  1.90258752E-09  1.90258752E-09  1.90258752E-09  1.90258752E-09  1.90258752E-09  1.90258752E-09       0.00000000       0.00000000
         0.00000000       0.00000000
         0.00000000       0.00000000       0.00000000       0.00000000       0.00000000       0.00000000       0.00000000       0.00000000       0.00000000       0.00000000       0.00000000       0.00000000       0.00000000       0.00000000       0.00000000       0.00000000       0.00000000       0.00000000       0.00000000       0.00000000
    3.80517504E-09  3.80517504E-09  3.80517504E-09  3.80517504E-09  3.80517504E-09  1.58548960E-09  1.58548960E-09  3.80517504E-09  3.80517504E-09  3.80517504E-09  1.90258752E-09  1.90258752E-09  1.90258752E-09  1.90258752E-09  1.90258752E-09  1.90258752E-09  1.90258752E-09  1.90258752E-09       0.00000000       0.00000000
         0.00000000       0.00000000
         0.00000000       0.00000000       0.00000000       0.00000000       0.00000000       0.00000000       0.00000000       0.00000000       0.00000000       0.00000000       0.00000000       0.00000000       0.00000000       0.00000000       0.00000000       0.00000000       0.00000000       0.00000000       0.00000000  1.42694064E-09
    3.80517504E-09  3.80517504E-09  3.80517504E-09  1.42694064E-09  1.58548960E-09  1.58548960E-09  1.58548960E-09  3.80517504E-09  3.80517504E-09  3.80517504E-09  1.90258752E-09  1.90258752E-09  1.90258752E-09  1.90258752E-09  1.90258752E-09  1.90258752E-09  1.90258752E-09  1.90258752E-09       0.00000000       0.00000000
         0.00000000       0.00000000
         0.00000000       0.00000000       0.00000000       0.00000000       0.00000000       0.00000000       0.00000000       0.00000000       0.00000000       0.00000000       0.00000000       0.00000000       0.00000000       0.00000000       0.00000000       0.00000000       0.00000000       0.00000000  1.42694064E-09  1.42694064E-09
    1.42694064E-09  1.42694064E-09  1.58548960E-09  3.80517504E-09  3.80517504E-09  3.80517504E-09  1.58548960E-09  3.80517504E-09  3.80517504E-09  2.85388128E-09  2.85388128E-09  2.85388128E-09  2.85388128E-09  2.85388128E-09  1.90258752E-09  1.90258752E-09  1.90258752E-09  1.90258752E-09       0.00000000       0.00000000
         0.00000000       0.00000000
         0.00000000       0.00000000       0.00000000       0.00000000       0.00000000       0.00000000       0.00000000       0.00000000       0.00000000       0.00000000       0.00000000       0.00000000       0.00000000       0.00000000       0.00000000       0.00000000       0.00000000  1.42694064E-09  1.42694064E-09  2.85388128E-09
    2.85388128E-09  2.85388128E-09  2.85388128E-09  2.85388128E-09  2.85388128E-09  2.85388128E-09  2.85388128E-09  2.85388128E-09  2.85388128E-09  2.85388128E-09  2.85388128E-09  2.85388128E-09  2.85388128E-09  2.85388128E-09  1.90258752E-09  1.90258752E-09  1.90258752E-09  1.90258752E-09       0.00000000       0.00000000
         0.00000000       0.00000000
         0.00000000       0.00000000       0.00000000       0.00000000       0.00000000       0.00000000       0.00000000       0.00000000       0.00000000       0.00000000       0.00000000       0.00000000       0.00000000       0.00000000       0.00000000       0.00000000       0.00000000  1.42694064E-09  1.42694064E-09  2.85388128E-09
    2.85388128E-09  2.85388128E-09  2.85388128E-09  2.85388128E-09  2.85388128E-09  2.85388128E-09  2.85388128E-09  2.85388128E-09  2.85388128E-09  2.85388128E-09  2.85388128E-09  2.85388128E-09  2.85388128E-09  2.85388128E-09  1.90258752E-09  1.90258752E-09  1.90258752E-09  1.90258752E-09       0.00000000       0.00000000
         0.00000000       0.00000000
         0.00000000       0.00000000       0.00000000       0.00000000       0.00000000       0.00000000       0.00000000       0.00000000       0.00000000       0.00000000       0.00000000       0.00000000       0.00000000       0.00000000  1.42694064E-09  1.42694064E-09  1.42694064E-09  1.42694064E-09  1.42694064E-09  2.85388128E-09
    2.85388128E-09  2.85388128E-09  2.85388128E-09  2.85388128E-09  2.85388128E-09  2.85388128E-09  2.85388128E-09  2.85388128E-09  2.85388128E-09  2.85388128E-09  2.85388128E-09  1.90258752E-09  1.90258752E-09  1.90258752E-09  1.90258752E-09  1.90258752E-09  1.90258752E-09  1.90258752E-09       0.00000000       0.00000000
         0.00000000       0.00000000
         0.00000000       0.00000000       0.00000000       0.00000000       0.00000000       0.00000000       0.00000000       0.00000000       0.00000000       0.00000000       0.00000000  3.80517504E-09  3.80517504E-09  3.80517504E-09  1.42694064E-09  1.42694064E-09  1.42694064E-09  1.42694064E-09  1.42694064E-09  2.85388128E-09
    2.85388128E-09  2.85388128E-09  2.85388128E-09  2.85388128E-09  2.85388128E-09  2.85388128E-09  2.85388128E-09  2.85388128E-09  2.85388128E-09  2.85388128E-09  2.85388128E-09  1.90258752E-09  1.90258752E-09  1.90258752E-09  1.90258752E-09  1.90258752E-09  1.90258752E-09  1.90258752E-09       0.00000000       0.00000000
         0.00000000       0.00000000
         0.00000000       0.00000000       0.00000000       0.00000000       0.00000000       0.00000000       0.00000000       0.00000000  1.42694064E-09  1.42694064E-09  1.42694064E-09  1.42694064E-09  1.42694064E-09  1.42694064E-09  1.42694064E-09  1.42694064E-09  1.42694064E-09  1.42694064E-09  1.42694064E-09  2.85388128E-09
    2.85388128E-09  2.85388128E-09  2.85388128E-09  2.85388128E-09  2.85388128E-09  2.85388128E-09  2.85388128E-09  2.85388128E-09  2.85388128E-09  2.85388128E-09  2.85388128E-09  1.90258752E-09  1.90258752E-09  1.90258752E-09  1.90258752E-09  1.90258752E-09  1.90258752E-09  1.90258752E-09       0.00000000       0.00000000
         0.00000000       0.00000000
         0.00000000       0.00000000       0.00000000       0.00000000       0.00000000       0.00000000  3.80517504E-09  3.80517504E-09  3.80517504E-09  3.80517504E-09  3.80517504E-09  3.80517504E-09  3.80517504E-09  3.80517504E-09  1.42694064E-09  1.42694064E-09  1.42694064E-09  1.42694064E-09  1.42694064E-09  2.85388128E-09
    2.85388128E-09  2.85388128E-09  2.85388128E-09  2.85388128E-09  2.85388128E-09  2.85388128E-09  2.85388128E-09  2.85388128E-09  2.85388128E-09  7.92744800E-10  7.92744800E-10  7.92744800E-10  7.92744800E-10  7.92744800E-10  7.92744800E-10  7.92744800E-10  7.92744800E-10  7.92744800E-10       0.00000000       0.00000000
         0.00000000       0.00000000
         0.00000000       0.00000000       0.00000000       0.00000000  3.80517504E-09  3.80517504E-09  3.80517504E-09  3.80517504E-09  3.80517504E-09  3.80517504E-09  3.80517504E-09  3.80517504E-09  3.80517504E-09  3.80517504E-09  3.80517504E-09  3.80517504E-09  2.85388128E-09  2.85388128E-09  2.85388128E-09  2.85388128E-09
    2.85388128E-09  2.85388128E-09  2.85388128E-09  2.85388128E-09  2.85388128E-09  2.85388128E-09  2.85388128E-09  7.92744800E-10  7.92744800E-10  7.92744800E-10  7.92744800E-10  7.92744800E-10  7.92744800E-10  7.92744800E-10  7.92744800E-10  1.42694064E-09  3.80517504E-09  3.80517504E-09       0.00000000       0.00000000
         0.00000000       0.00000000
         0.00000000       0.00000000       0.00000000  3.80517504E-09  3.80517504E-09  3.80517504E-09  3.80517504E-09  3.80517504E-09  3.80517504E-09  3.80517504E-09  3.80517504E-09  3.80517504E-09  3.80517504E-09  3.80517504E-09  3.80517504E-09  3.80517504E-09  2.85388128E-09  2.85388128E-09  2.85388128E-09  2.85388128E-09
    2.85388128E-09  2.85388128E-09  2.85388128E-09  2.85388128E-09  2.85388128E-09  2.85388128E-09  2.85388128E-09  7.92744800E-10  7.92744800E-10  7.92744800E-10  7.92744800E-10  7.92744800E-10  7.92744800E-10  7.92744800E-10  7.92744800E-10  3.80517504E-09  3.80517504E-09  3.80517504E-09       0.00000000       0.00000000
         0.00000000       0.00000000
         0.00000000  3.80517504E-09  3.80517504E-09  3.80517504E-09  3.80517504E-09  3.80517504E-09  3.80517504E-09  3.80517504E-09  3.80517504E-09  3.80517504E-09  3.80517504E-09  3.80517504E-09  3.80517504E-09  3.80517504E-09  3.80517504E-09  3.80517504E-09  2.85388128E-09  2.85388128E-09  2.85388128E-09  2.85388128E-09
    2.85388128E-09  2.85388128E-09  2.85388128E-09  2.85388128E-09  2.85388128E-09  2.85388128E-09  2.85388128E-09  7.92744800E-10  7.92744800E-10  7.92744800E-10  7.92744800E-10  7.92744800E-10  7.92744800E-10  7.92744800E-10  7.92744800E-10  3.80517504E-09  3.80517504E-09  3.80517504E-09       0.00000000       0.00000000
         0.00000000       0.00000000
    3.80517504E-09  3.80517504E-09  3.80517504E-09  3.80517504E-09  3.80517504E-09  3.80517504E-09  3.80517504E-09  3.80517504E-09  3.80517504E-09  3.80517504E-09  3.80517504E-09  3.80517504E-09  3.80517504E-09  3.80517504E-09  3.80517504E-09  3.80517504E-09  2.85388128E-09  2.85388128E-09  2.85388128E-09  2.85388128E-09
    2.85388128E-09  2.85388128E-09  2.85388128E-09  2.85388128E-09  2.85388128E-09  2.85388128E-09  2.85388128E-09  7.92744800E-10  3.80517504E-09  3.80517504E-09  3.80517504E-09  3.80517504E-09  3.80517504E-09  3.80517504E-09  3.80517504E-09  3.80517504E-09  3.80517504E-09  3.80517504E-09       0.00000000       0.00000000
         0.00000000       0.00000000
    3.80517504E-09  3.80517504E-09  3.80517504E-09  3.80517504E-09       0.00000000       0.00000000       0.00000000  3.80517504E-09  3.80517504E-09  3.80517504E-09  3.80517504E-09  3.80517504E-09  3.80517504E-09  3.80517504E-09  3.80517504E-09  3.80517504E-09  2.85388128E-09  2.85388128E-09  2.85388128E-09  2.85388128E-09
    2.85388128E-09  2.85388128E-09  2.85388128E-09  2.85388128E-09  2.85388128E-09  2.85388128E-09  2.85388128E-09  7.92744800E-10  3.80517504E-09  3.80517504E-09  3.80517504E-09  3.80517504E-09  3.80517504E-09  3.80517504E-09  3.80517504E-09  3.80517504E-09  3.80517504E-09  3.80517504E-09       0.00000000       0.00000000
         0.00000000       0.00000000
    3.80517504E-09       0.00000000       0.00000000       0.00000000       0.00000000       0.00000000       0.00000000       0.00000000       0.00000000  3.80517504E-09  3.80517504E-09  3.80517504E-09  3.80517504E-09  3.80517504E-09  3.80517504E-09  3.80517504E-09  2.85388128E-09  2.85388128E-09  2.85388128E-09  2.85388128E-09
    2.85388128E-09  2.85388128E-09  2.85388128E-09  2.85388128E-09  2.85388128E-09  2.85388128E-09  2.85388128E-09  7.92744800E-10  3.80517504E-09  1.42694064E-09  3.80517504E-09  3.80517504E-09  3.80517504E-09  3.80517504E-09  3.80517504E-09  3.80517504E-09  3.80517504E-09  3.80517504E-09       0.00000000       0.00000000
         0.00000000       0.00000000
         0.00000000       0.00000000       0.00000000       0.00000000       0.00000000       0.00000000       0.00000000       0.00000000       0.00000000       0.00000000  3.80517504E-09  3.80517504E-09  3.80517504E-09  3.80517504E-09  1.42694064E-09  1.42694064E-09  1.42694064E-09  1.42694064E-09  1.42694064E-09  1.42694064E-09
    1.42694064E-09  1.42694064E-09  1.42694064E-09  1.42694064E-09  7.92744800E-10  7.92744800E-10  7.92744800E-10  7.92744800E-10  3.80517504E-09  3.80517504E-09  3.80517504E-09  3.80517504E-09  3.80517504E-09  3.80517504E-09  3.80517504E-09  3.80517504E-09  3.80517504E-09  3.80517504E-09       0.00000000       0.00000000
         0.00000000       0.00000000
         0.00000000       0.00000000       0.00000000       0.00000000       0.00000000       0.00000000       0.00000000       0.00000000       0.00000000       0.00000000       0.00000000  3.80517504E-09  3.80517504E-09  3.80517504E-09  1.42694064E-09  1.42694064E-09  1.42694064E-09  1.42694064E-09  1.42694064E-09  1.42694064E-09
    1.42694064E-09  1.42694064E-09  1.42694064E-09  1.42694064E-09  7.92744800E-10  7.92744800E-10  7.92744800E-10  7.92744800E-10  7.92744800E-10  3.80517504E-09  1.42694064E-09  3.80517504E-09  3.80517504E-09  3.80517504E-09  3.80517504E-09  3.80517504E-09  3.80517504E-09  3.80517504E-09       0.00000000       0.00000000
         0.00000000       0.00000000
         0.00000000       0.00000000       0.00000000       0.00000000       0.00000000       0.00000000       0.00000000       0.00000000       0.00000000       0.00000000       0.00000000       0.00000000  3.80517504E-09  3.80517504E-09  1.42694064E-09  1.42694064E-09  1.42694064E-09  1.42694064E-09  1.42694064E-09  1.42694064E-09
    1.42694064E-09  1.42694064E-09  1.42694064E-09  1.42694064E-09  7.92744800E-10  7.92744800E-10  7.92744800E-10  7.92744800E-10  7.92744800E-10  3.80517504E-09  3.80517504E-09  3.80517504E-09  3.80517504E-09  3.80517504E-09  1.42694064E-09  3.80517504E-09  3.80517504E-09  3.80517504E-09       0.00000000       0.00000000
         0.00000000       0.00000000
         0.00000000       0.00000000       0.00000000       0.00000000       0.00000000       0.00000000       0.00000000       0.00000000       0.00000000       0.00000000       0.00000000       0.00000000       0.00000000  3.80517504E-09  1.42694064E-09  1.42694064E-09  1.42694064E-09  1.42694064E-09  1.42694064E-09  1.42694064E-09
    1.42694064E-09  1.42694064E-09  1.42694064E-09  1.42694064E-09  7.92744800E-10  7.92744800E-10  7.92744800E-10  7.92744800E-10  7.92744800E-10  3.80517504E-09  3.80517504E-09  3.80517504E-09  3.80517504E-09  1.42694064E-09  1.42694064E-09  3.80517504E-09  3.80517504E-09  3.80517504E-09       0.00000000       0.00000000
         0.00000000       0.00000000
         0.00000000       0.00000000       0.00000000       0.00000000       0.00000000       0.00000000       0.00000000       0.00000000       0.00000000       0.00000000       0.00000000       0.00000000       0.00000000       0.00000000  1.42694064E-09  1.42694064E-09  1.42694064E-09  1.42694064E-09  1.42694064E-09  1.42694064E-09
    1.42694064E-09  1.42694064E-09  1.42694064E-09  1.42694064E-09  7.92744800E-10  7.92744800E-10  7.92744800E-10  7.92744800E-10  7.92744800E-10  1.42694064E-09  3.80517504E-09  3.80517504E-09  1.42694064E-09  3.80517504E-09  1.90258752E-09  1.90258752E-09  1.90258752E-09  3.80517504E-09  3.80517504E-09       0.00000000
         0.00000000       0.00000000
         0.00000000       0.00000000       0.00000000       0.00000000       0.00000000       0.00000000       0.00000000       0.00000000       0.00000000       0.00000000       0.00000000       0.00000000       0.00000000       0.00000000  1.42694064E-09  1.42694064E-09  1.42694064E-09  1.42694064E-09  1.42694064E-09  1.42694064E-09
    1.42694064E-09  1.42694064E-09  1.42694064E-09  1.42694064E-09  7.92744800E-10  7.92744800E-10  7.92744800E-10  7.92744800E-10  7.92744800E-10  1.42694064E-09  3.80517504E-09  3.80517504E-09  3.80517504E-09  3.80517504E-09  1.90258752E-09  1.90258752E-09  1.90258752E-09  3.80517504E-09  3.80517504E-09       0.00000000
         0.00000000       0.00000000
         0.00000000       0.00000000       0.00000000       0.00000000       0.00000000       0.00000000       0.00000000       0.00000000       0.00000000       0.00000000       0.00000000       0.00000000       0.00000000       0.00000000  1.42694064E-09  1.42694064E-09  1.42694064E-09  1.42694064E-09  1.42694064E-09  1.42694064E-09
    1.42694064E-09  1.42694064E-09  1.42694064E-09  1.42694064E-09  7.92744800E-10  7.92744800E-10  7.92744800E-10  7.92744800E-10  7.92744800E-10  3.80517504E-09  3.80517504E-09  3.80517504E-09  3.80517504E-09  3.80517504E-09  1.90258752E-09  1.90258752E-09  1.90258752E-09  3.80517504E-09  3.80517504E-09       0.00000000
         0.00000000       0.00000000
         0.00000000       0.00000000       0.00000000       0.00000000       0.00000000       0.00000000       0.00000000       0.00000000       0.00000000       0.00000000       0.00000000       0.00000000       0.00000000       0.00000000  1.42694064E-09  1.42694064E-09  1.42694064E-09  1.42694064E-09  1.42694064E-09  1.42694064E-09
    1.42694064E-09  1.42694064E-09  1.42694064E-09  1.42694064E-09  7.92744800E-10  7.92744800E-10  7.92744800E-10  7.92744800E-10  7.92744800E-10  3.80517504E-09  3.80517504E-09  3.80517504E-09  3.80517504E-09  3.80517504E-09  1.90258752E-09  1.90258752E-09  1.90258752E-09  3.80517504E-09  3.80517504E-09       0.00000000
         0.00000000       0.00000000
         0.00000000       0.00000000       0.00000000       0.00000000       0.00000000       0.00000000       0.00000000       0.00000000       0.00000000       0.00000000       0.00000000       0.00000000       0.00000000       0.00000000  1.42694064E-09  1.42694064E-09  1.42694064E-09  1.42694064E-09  1.42694064E-09  1.42694064E-09
    1.42694064E-09  1.42694064E-09  1.42694064E-09  1.42694064E-09  7.92744800E-10  7.92744800E-10  7.92744800E-10  7.92744800E-10  7.92744800E-10  3.80517504E-09  3.80517504E-09  3.80517504E-09  3.80517504E-09  3.80517504E-09  1.90258752E-09  1.90258752E-09  1.90258752E-09  3.80517504E-09  3.80517504E-09       0.00000000
         0.00000000       0.00000000
         0.00000000       0.00000000       0.00000000       0.00000000       0.00000000       0.00000000       0.00000000       0.00000000       0.00000000       0.00000000       0.00000000       0.00000000       0.00000000       0.00000000       0.00000000       0.00000000       0.00000000       0.00000000       0.00000000       0.00000000
         0.00000000       0.00000000       0.00000000       0.00000000  7.92744800E-10  7.92744800E-10  7.92744800E-10  7.92744800E-10  7.92744800E-10  3.80517504E-09  3.80517504E-09  3.80517504E-09  3.80517504E-09  3.80517504E-09  1.90258752E-09  1.90258752E-09  1.90258752E-09  3.80517504E-09  3.80517504E-09       0.00000000
         0.00000000       0.00000000
         0.00000000       0.00000000       0.00000000       0.00000000       0.00000000       0.00000000       0.00000000       0.00000000       0.00000000       0.00000000       0.00000000       0.00000000       0.00000000       0.00000000       0.00000000       0.00000000       0.00000000       0.00000000       0.00000000       0.00000000
         0.00000000       0.00000000       0.00000000       0.00000000  7.92744800E-10  7.92744800E-10  7.92744800E-10  7.92744800E-10  7.92744800E-10  3.80517504E-09  3.80517504E-09  3.80517504E-09  3.80517504E-09  3.80517504E-09  3.80517504E-09  7.92744800E-10  3.80517504E-09  1.90258752E-09  1.90258752E-09       0.00000000
         0.00000000       0.00000000
         0.00000000       0.00000000       0.00000000       0.00000000       0.00000000       0.00000000       0.00000000       0.00000000       0.00000000       0.00000000       0.00000000       0.00000000       0.00000000       0.00000000       0.00000000       0.00000000       0.00000000       0.00000000       0.00000000       0.00000000
         0.00000000       0.00000000       0.00000000       0.00000000  7.92744800E-10  7.92744800E-10  3.80517504E-09  3.80517504E-09  3.80517504E-09  3.80517504E-09  3.80517504E-09  3.80517504E-09  3.80517504E-09  3.80517504E-09  3.80517504E-09  7.92744800E-10  7.92744800E-10  7.92744800E-10  7.92744800E-10       0.00000000
         0.00000000       0.00000000
         0.00000000       0.00000000       0.00000000       0.00000000       0.00000000       0.00000000       0.00000000       0.00000000       0.00000000       0.00000000       0.00000000       0.00000000       0.00000000       0.00000000       0.00000000       0.00000000       0.00000000       0.00000000       0.00000000       0.00000000
         0.00000000       0.00000000       0.00000000       0.00000000  7.92744800E-10  3.80517504E-09  3.80517504E-09  3.80517504E-09  3.80517504E-09  3.80517504E-09  3.80517504E-09  3.80517504E-09  3.80517504E-09  7.92744800E-10  7.92744800E-10  7.92744800E-10       0.00000000       0.00000000       0.00000000       0.00000000
         0.00000000       0.00000000
         0.00000000       0.00000000       0.00000000       0.00000000       0.00000000       0.00000000       0.00000000       0.00000000       0.00000000       0.00000000       0.00000000       0.00000000       0.00000000       0.00000000       0.00000000       0.00000000       0.00000000       0.00000000       0.00000000       0.00000000
         0.00000000       0.00000000       0.00000000       0.00000000  7.92744800E-10  7.92744800E-10  7.92744800E-10  7.92744800E-10  7.92744800E-10  7.92744800E-10  7.92744800E-10       0.00000000       0.00000000       0.00000000       0.00000000       0.00000000       0.00000000       0.00000000       0.00000000       0.00000000
         0.00000000       0.00000000
END period  1

