BEGIN options
  READASARRAYS
END options

BEGIN period  1
  recharge
    INTERNAL  FACTOR  1.0
         0.00000000       0.00000000       0.00000000       0.00000000       0.00000000       0.00000000       0.00000000       0.00000000       0.00000000       0.00000000       0.00000000       0.00000000       0.00000000       0.00000000       0.00000000       0.00000000       0.00000000       0.00000000       0.00000000       0.00000000
         0.00000000       0.00000000       0.00000000       0.00000000       0.00000000       0.00000000       0.00000000       0.00000000  3.80517504E-09  1.90258752E-09  1.90258752E-09  1.42694064E-09  1.42694064E-09       0.00000000       0.00000000       0.00000000       0.00000000       0.00000000       0.00000000       0.00000000
         0.00000000       0.00000000
         0.00000000       0.00000000       0.00000000       0.00000000       0.00000000       0.00000000       0.00000000       0.00000000       0.00000000       0.00000000       0.00000000       0.00000000       0.00000000       0.00000000       0.00000000       0.00000000       0.00000000       0.00000000       0.00000000       0.00000000
         0.00000000       0.00000000       0.00000000       0.00000000       0.00000000       0.00000000       0.00000000  3.80517504E-09  1.90258752E-09  1.90258752E-09  1.90258752E-09  1.42694064E-09  1.42694064E-09       0.00000000       0.00000000       0.00000000       0.00000000       0.00000000       0.00000000       0.00000000
         0.00000000       0.00000000
         0.00000000       0.00000000       0.00000000       0.00000000       0.00000000       0.00000000       0.00000000       0.00000000       0.00000000       0.00000000       0.00000000       0.00000000       0.00000000       0.00000000       0.00000000       0.00000000       0.00000000       0.00000000       0.00000000       0.00000000
         0.00000000       0.00000000       0.00000000       0.00000000       0.00000000       0.00000000  3.80517504E-09  1.90258752E-09  1.99771689E-09  1.99771689E-09  1.90258752E-09  1.42694064E-09  1.90258752E-09       0.00000000       0.00000000       0.00000000       0.00000000       0.00000000       0.00000000       0.00000000
         0.00000000       0.00000000
         0.00000000       0.00000000       0.00000000       0.00000000       0.00000000       0.00000000       0.00000000       0.00000000       0.00000000       0.00000000       0.00000000       0.00000000       0.00000000       0.00000000       0.00000000       0.00000000       0.00000000       0.00000000       0.00000000       0.00000000
         0.00000000       0.00000000  3.80517504E-09  3.80517504E-09  3.80517504E-09  3.80517504E-09  3.80517504E-09  1.90258752E-09  1.99771689E-09  1.99771689E-09  -1.60134450E-09  1.90258752E-09  1.90258752E-09  1.90258752E-09  1.90258752E-09  1.90258752E-09       0.00000000       0.00000000       0.00000000       0.00000000
         0.00000000       0.00000000
         0.00000000       0.00000000       0.00000000       0.00000000       0.00000000       0.00000000       0.00000000       0.00000000       0.00000000       0.00000000       0.00000000       0.00000000       0.00000000       0.00000000       0.00000000       0.00000000       0.00000000       0.00000000       0.00000000       0.00000000
         0.00000000  3.80517504E-09  3.80517504E-09  3.80517504E-09  3.80517504E-09  3.80517504E-09  3.80517504E-09  3.80517504E-09  3.90030441E-09  3.01243024E-10  3.01243024E-10  1.90258752E-09  1.90258752E-09  1.90258752E-09  1.90258752E-09  1.90258752E-09       0.00000000       0.00000000       0.00000000       0.00000000
         0.00000000       0.00000000
         0.00000000       0.00000000       0.00000000       0.00000000       0.00000000       0.00000000       0.00000000       0.00000000       0.00000000       0.00000000       0.00000000       0.00000000       0.00000000       0.00000000       0.00000000       0.00000000       0.00000000       0.00000000       0.00000000       0.00000000
    3.80517504E-09  3.80517504E-09  3.80517504E-09  3.80517504E-09  3.80517504E-09  3.80517504E-09  3.80517504E-09  3.80517504E-09  3.80517504E-09  3.80517504E-09  3.01243024E-10  -1.60134450E-09  1.90258752E-09  1.90258752E-09  1.90258752E-09  1.90258752E-09       0.00000000       0.00000000       0.00000000       0.00000000
         0.00000000       0.00000000
         0.00000000       0.00000000       0.00000000       0.00000000       0.00000000       0.00000000       0.00000000       0.00000000       0.00000000       0.00000000       0.00000000       0.00000000       0.00000000       0.00000000       0.00000000       0.00000000       0.00000000       0.00000000       0.00000000       0.00000000
    3.80517504E-09  3.80517504E-09  4.18569254E-09  4.18569254E-09  4.18569254E-09  3.80517504E-09  3.80517504E-09  3.80517504E-09  3.80517504E-09  3.80517504E-09  1.90258752E-09  -1.60134450E-09  1.90258752E-09  1.90258752E-09  1.90258752E-09  1.90258752E-09  1.90258752E-09  1.90258752E-09       0.00000000       0.00000000
         0.00000000       0.00000000
         0.00000000       0.00000000       0.00000000       0.00000000       0.00000000       0.00000000       0.00000000       0.00000000       0.00000000       0.00000000       0.00000000       0.00000000       0.00000000       0.00000000       0.00000000       0.00000000       0.00000000       0.00000000       0.00000000       0.00000000
    4.18569254E-09  4.18569254E-09  4.18569254E-09  1.80745814E-09  1.80745814E-09  3.80517504E-09  3.80517504E-09  3.80517504E-09  3.80517504E-09  3.80517504E-09  1.90258752E-09  -1.60134450E-09  -1.60134450E-09  -1.60134450E-09  1.90258752E-09  1.90258752E-09  1.90258752E-09  1.90258752E-09       0.00000000       0.00000000
         0.00000000       0.00000000
         0.00000000       0.00000000       0.00000000       0.00000000       0.00000000       0.00000000       0.00000000       0.00000000       0.00000000       0.00000000       0.00000000       0.00000000       0.00000000       0.00000000       0.00000000       0.00000000       0.00000000       0.00000000       0.00000000  1.42694064E-09
    1.80745814E-09  1.80745814E-09  1.80745814E-09  1.80745814E-09  4.18569254E-09  3.80517504E-09  3.80517504E-09  3.80517504E-09  3.80517504E-09  3.80517504E-09  1.90258752E-09  -1.60134450E-09  -1.60134450E-09  -1.60134450E-09  -1.60134450E-09  -1.60134450E-09  1.90258752E-09  1.90258752E-09       0.00000000       0.00000000
         0.00000000       0.00000000
         0.00000000       0.00000000       0.00000000       0.00000000       0.00000000       0.00000000       0.00000000       0.00000000       0.00000000       0.00000000       0.00000000       0.00000000       0.00000000       0.00000000       0.00000000       0.00000000       0.00000000       0.00000000       0.00000000       0.00000000
    4.18569254E-09  4.18569254E-09  4.18569254E-09  4.18569254E-09  4.18569254E-09  1.96600710E-09  -1.91844242E-09  4.18569254E-09  4.18569254E-09  3.80517504E-09  -1.60134450E-09  -1.60134450E-09  -1.60134450E-09  -1.60134450E-09  -1.60134450E-09  -1.60134450E-09  -1.60134450E-09  1.90258752E-09       0.00000000       0.00000000
         0.00000000       0.00000000
         0.00000000       0.00000000       0.00000000       0.00000000       0.00000000       0.00000000       0.00000000       0.00000000       0.00000000       0.00000000       0.00000000       0.00000000       0.00000000       0.00000000       0.00000000       0.00000000       0.00000000       0.00000000       0.00000000  1.42694064E-09
    3.80517504E-09  3.80517504E-09  3.80517504E-09  1.80745814E-09  1.96600710E-09  1.96600710E-09  -1.91844242E-09  3.01243024E-10  3.01243024E-10  4.18569254E-09  -1.60134450E-09  -1.60134450E-09  -1.60134450E-09  -1.60134450E-09  -1.60134450E-09  -1.60134450E-09  -1.60134450E-09  1.90258752E-09       0.00000000       0.00000000
         0.00000000       0.00000000
         0.00000000       0.00000000       0.00000000       0.00000000       0.00000000       0.00000000       0.00000000       0.00000000       0.00000000       0.00000000       0.00000000       0.00000000       0.00000000       0.00000000       0.00000000       0.00000000       0.00000000       0.00000000  1.42694064E-09  1.42694064E-09
    1.42694064E-09  1.42694064E-09  1.58548960E-09  3.80517504E-09  3.80517504E-09  3.80517504E-09  1.58548960E-09  3.01243024E-10  3.01243024E-10  -6.50050736E-10  2.85388128E-09  -6.50050736E-10  -6.50050736E-10  -6.50050736E-10  -1.60134450E-09  -1.60134450E-09  -1.60134450E-09  1.90258752E-09       0.00000000       0.00000000
         0.00000000       0.00000000
         0.00000000       0.00000000       0.00000000       0.00000000       0.00000000       0.00000000       0.00000000       0.00000000       0.00000000       0.00000000       0.00000000       0.00000000       0.00000000       0.00000000       0.00000000       0.00000000       0.00000000  1.42694064E-09  1.42694064E-09  2.85388128E-09
    2.85388128E-09  2.85388128E-09  2.85388128E-09  2.85388128E-09  2.85388128E-09  2.85388128E-09  2.94901065E-09  2.85388128E-09  -6.50050736E-10  -6.50050736E-10  -6.50050736E-10  -6.50050736E-10  -6.50050736E-10  -6.50050736E-10  -1.60134450E-09  -1.60134450E-09  -1.60134450E-09  1.90258752E-09       0.00000000       0.00000000
         0.00000000       0.00000000
         0.00000000       0.00000000       0.00000000       0.00000000       0.00000000       0.00000000       0.00000000       0.00000000       0.00000000       0.00000000       0.00000000       0.00000000       0.00000000       0.00000000       0.00000000       0.00000000       0.00000000  1.42694064E-09  1.42694064E-09  2.85388128E-09
    2.85388128E-09  2.85388128E-09  2.85388128E-09  2.85388128E-09  2.85388128E-09  2.85388128E-09  2.94901065E-09  2.94901065E-09  2.94901065E-09  -6.50050736E-10  -6.50050736E-10  -6.50050736E-10  -6.50050736E-10  -6.50050736E-10  -1.60134450E-09  -1.60134450E-09  -1.60134450E-09  1.90258752E-09       0.00000000       0.00000000
         0.00000000       0.00000000
         0.00000000       0.00000000       0.00000000       0.00000000       0.00000000       0.00000000       0.00000000       0.00000000       0.00000000       0.00000000       0.00000000       0.00000000       0.00000000       0.00000000  1.42694064E-09  1.42694064E-09  1.42694064E-09  1.42694064E-09  1.42694064E-09  2.85388128E-09
    2.85388128E-09  2.85388128E-09  2.85388128E-09  2.85388128E-09  2.85388128E-09  2.85388128E-09  2.94901065E-09  2.94901065E-09  2.94901065E-09  -6.50050736E-10  -6.50050736E-10  -1.60134450E-09  -1.60134450E-09  -1.60134450E-09  -1.60134450E-09  -1.60134450E-09  -1.60134450E-09  1.90258752E-09       0.00000000       0.00000000
         0.00000000       0.00000000
         0.00000000       0.00000000       0.00000000       0.00000000       0.00000000       0.00000000       0.00000000       0.00000000       0.00000000       0.00000000       0.00000000  3.80517504E-09  3.80517504E-09  3.80517504E-09  1.42694064E-09  1.42694064E-09  1.42694064E-09  1.42694064E-09  1.42694064E-09  2.85388128E-09
    2.85388128E-09  2.85388128E-09  2.85388128E-09  2.85388128E-09  2.94901065E-09  2.85388128E-09  2.94901065E-09  2.94901065E-09  2.94901065E-09  2.94901065E-09  -6.50050736E-10  -1.60134450E-09  -1.60134450E-09  -1.60134450E-09  -1.60134450E-09  -1.60134450E-09  -1.60134450E-09  1.90258752E-09       0.00000000       0.00000000
         0.00000000       0.00000000
         0.00000000       0.00000000       0.00000000       0.00000000       0.00000000       0.00000000       0.00000000       0.00000000  1.42694064E-09  1.42694064E-09  1.42694064E-09  1.42694064E-09  1.42694064E-09  1.42694064E-09  1.42694064E-09  1.42694064E-09  1.42694064E-09  1.42694064E-09  1.52207002E-09  2.94901065E-09
    2.94901065E-09  2.94901065E-09  2.94901065E-09  2.94901065E-09  2.94901065E-09  2.85388128E-09  2.94901065E-09  2.94901065E-09  2.94901065E-09  2.94901065E-09  2.85388128E-09  1.90258752E-09  1.90258752E-09  1.90258752E-09  1.90258752E-09  1.90258752E-09  1.90258752E-09  1.90258752E-09       0.00000000       0.00000000
         0.00000000       0.00000000
         0.00000000       0.00000000       0.00000000       0.00000000       0.00000000       0.00000000  3.90030441E-09  3.90030441E-09  3.90030441E-09  3.90030441E-09  3.90030441E-09  3.90030441E-09  3.90030441E-09  3.90030441E-09  1.52207002E-09  1.52207002E-09  1.52207002E-09  1.52207002E-09  1.52207002E-09  2.85388128E-09
    2.94901065E-09  2.94901065E-09  2.94901065E-09  2.85388128E-09  2.85388128E-09  2.85388128E-09  2.85388128E-09  2.85388128E-09  2.85388128E-09  7.92744800E-10  7.92744800E-10  7.92744800E-10  7.92744800E-10  7.92744800E-10  7.92744800E-10  7.92744800E-10  7.92744800E-10  7.92744800E-10       0.00000000       0.00000000
         0.00000000       0.00000000
         0.00000000       0.00000000       0.00000000       0.00000000  3.90030441E-09  3.90030441E-09  3.90030441E-09  3.90030441E-09  3.90030441E-09  3.90030441E-09  1.71232877E-08  1.71232877E-08  1.71232877E-08  3.90030441E-09  3.90030441E-09  3.90030441E-09  2.94901065E-09  2.94901065E-09  2.85388128E-09  2.85388128E-09
    2.94901065E-09  2.94901065E-09  2.94901065E-09  2.94901065E-09  2.85388128E-09  2.85388128E-09  2.85388128E-09  7.92744800E-10  7.92744800E-10  7.92744800E-10  7.92744800E-10  7.92744800E-10  7.92744800E-10  7.92744800E-10  7.92744800E-10  1.42694064E-09  3.80517504E-09  3.80517504E-09       0.00000000       0.00000000
         0.00000000       0.00000000
         0.00000000       0.00000000       0.00000000  3.80517504E-09  3.90030441E-09  3.90030441E-09  3.90030441E-09  3.90030441E-09  3.90030441E-09  3.90030441E-09  1.71232877E-08  1.71232877E-08  1.71232877E-08  3.90030441E-09  3.90030441E-09  3.90030441E-09  2.94901065E-09  2.85388128E-09  2.94901065E-09  2.94901065E-09
    2.94901065E-09  2.94901065E-09  2.94901065E-09  2.94901065E-09  2.85388128E-09  2.85388128E-09  2.85388128E-09  7.92744800E-10  7.92744800E-10  7.92744800E-10  7.92744800E-10  7.92744800E-10  7.92744800E-10  7.92744800E-10  7.92744800E-10  3.80517504E-09  3.80517504E-09  3.80517504E-09       0.00000000       0.00000000
         0.00000000       0.00000000
         0.00000000  3.80517504E-09  3.80517504E-09  3.90030441E-09  3.90030441E-09  3.90030441E-09  3.90030441E-09  3.90030441E-09  3.90030441E-09  3.90030441E-09  1.71232877E-08  1.71232877E-08  1.71232877E-08  3.90030441E-09  3.90030441E-09  3.90030441E-09  2.94901065E-09  2.94901065E-09  2.94901065E-09  2.94901065E-09
    2.85388128E-09  2.94901065E-09  2.94901065E-09  2.85388128E-09  2.85388128E-09  2.85388128E-09  2.85388128E-09  7.92744800E-10  7.92744800E-10  7.92744800E-10  7.92744800E-10  7.92744800E-10  7.92744800E-10  7.92744800E-10  7.92744800E-10  3.80517504E-09  3.80517504E-09  3.80517504E-09       0.00000000       0.00000000
         0.00000000       0.00000000
    3.80517504E-09  3.90030441E-09  3.90030441E-09  3.90030441E-09  3.90030441E-09  3.90030441E-09  3.90030441E-09  3.90030441E-09  3.90030441E-09  3.90030441E-09  1.71232877E-08  1.71232877E-08  1.71232877E-08  3.90030441E-09  3.90030441E-09  3.90030441E-09  2.94901065E-09  2.94901065E-09  2.94901065E-09  2.94901065E-09
    2.85388128E-09  2.94901065E-09  2.85388128E-09  2.85388128E-09  2.85388128E-09  2.85388128E-09  2.85388128E-09  7.92744800E-10  3.80517504E-09  3.80517504E-09  3.80517504E-09  3.80517504E-09  3.80517504E-09  3.90030441E-09  3.90030441E-09  3.80517504E-09  3.80517504E-09  3.80517504E-09       0.00000000       0.00000000
         0.00000000       0.00000000
    3.90030441E-09  3.90030441E-09  3.90030441E-09  3.90030441E-09       0.00000000       0.00000000       0.00000000  3.80517504E-09  3.80517504E-09  3.90030441E-09  3.90030441E-09  3.90030441E-09  3.90030441E-09  3.90030441E-09  3.90030441E-09  3.90030441E-09  2.94901065E-09  2.94901065E-09  2.94901065E-09  2.94901065E-09
    2.85388128E-09  2.85388128E-09  2.85388128E-09  2.85388128E-09  2.85388128E-09  2.85388128E-09  2.85388128E-09  7.92744800E-10  3.80517504E-09  3.80517504E-09  3.80517504E-09  3.01243024E-10  3.01243024E-10  3.90030441E-09  3.90030441E-09  3.80517504E-09  3.80517504E-09  3.80517504E-09       0.00000000       0.00000000
         0.00000000       0.00000000
    3.80517504E-09       0.00000000       0.00000000       0.00000000       0.00000000       0.00000000       0.00000000       0.00000000       0.00000000  3.80517504E-09  3.80517504E-09  3.90030441E-09  3.90030441E-09  3.90030441E-09  3.90030441E-09  3.90030441E-09  2.94901065E-09  2.85388128E-09  2.85388128E-09  2.85388128E-09
    2.85388128E-09  2.85388128E-09  2.85388128E-09  2.85388128E-09  2.85388128E-09  2.85388128E-09  2.85388128E-09  7.92744800E-10  3.80517504E-09  1.42694064E-09  3.01243024E-10  3.01243024E-10  3.01243024E-10  3.01243024E-10  3.90030441E-09  3.80517504E-09  3.80517504E-09  3.80517504E-09       0.00000000       0.00000000
         0.00000000       0.00000000
         0.00000000       0.00000000       0.00000000       0.00000000       0.00000000       0.00000000       0.00000000       0.00000000       0.00000000       0.00000000  3.80517504E-09  3.80517504E-09  3.80517504E-09  3.90030441E-09  1.52207002E-09  1.42694064E-09  1.42694064E-09  1.42694064E-09  1.42694064E-09  1.42694064E-09
    1.42694064E-09  1.42694064E-09  1.42694064E-09  1.42694064E-09  7.92744800E-10  7.92744800E-10  7.92744800E-10  7.92744800E-10  3.80517504E-09  3.80517504E-09  3.80517504E-09  3.01243024E-10  3.01243024E-10  3.01243024E-10  3.90030441E-09  3.90030441E-09  3.80517504E-09  3.80517504E-09       0.00000000       0.00000000
         0.00000000       0.00000000
         0.00000000       0.00000000       0.00000000       0.00000000       0.00000000       0.00000000       0.00000000       0.00000000       0.00000000       0.00000000       0.00000000  3.80517504E-09  3.80517504E-09  3.80517504E-09  1.42694064E-09  1.42694064E-09  1.42694064E-09  1.42694064E-09  1.42694064E-09  1.42694064E-09
    1.42694064E-09  1.42694064E-09  1.42694064E-09  1.42694064E-09  7.92744800E-10  7.92744800E-10  7.92744800E-10  7.92744800E-10  7.92744800E-10  3.80517504E-09  1.42694064E-09  3.80517504E-09  3.80517504E-09  3.01243024E-10  3.90030441E-09  3.90030441E-09  3.80517504E-09  3.80517504E-09       0.00000000       0.00000000
         0.00000000       0.00000000
         0.00000000       0.00000000       0.00000000       0.00000000       0.00000000       0.00000000       0.00000000       0.00000000       0.00000000       0.00000000       0.00000000       0.00000000  3.80517504E-09  3.80517504E-09  1.42694064E-09  1.42694064E-09  1.42694064E-09  1.42694064E-09  1.42694064E-09  1.42694064E-09
    1.42694064E-09  1.42694064E-09  1.42694064E-09  1.42694064E-09  7.92744800E-10  7.92744800E-10  7.92744800E-10  7.92744800E-10  7.92744800E-10  3.80517504E-09  3.80517504E-09  3.80517504E-09  3.90030441E-09  3.90030441E-09  1.42694064E-09  3.90030441E-09  3.90030441E-09  3.80517504E-09       0.00000000       0.00000000
         0.00000000       0.00000000
         0.00000000       0.00000000       0.00000000       0.00000000       0.00000000       0.00000000       0.00000000       0.00000000       0.00000000       0.00000000       0.00000000       0.00000000       0.00000000  3.80517504E-09  1.42694064E-09  1.42694064E-09  1.42694064E-09  1.42694064E-09  1.42694064E-09  1.42694064E-09
    1.42694064E-09  1.42694064E-09  1.42694064E-09  1.42694064E-09  7.92744800E-10  7.92744800E-10  7.92744800E-10  7.92744800E-10  7.92744800E-10  3.80517504E-09  3.80517504E-09  3.90030441E-09  3.90030441E-09  1.42694064E-09  1.42694064E-09  3.80517504E-09  3.80517504E-09  3.80517504E-09       0.00000000       0.00000000
         0.00000000       0.00000000
         0.00000000       0.00000000       0.00000000       0.00000000       0.00000000       0.00000000       0.00000000       0.00000000       0.00000000       0.00000000       0.00000000       0.00000000       0.00000000       0.00000000  1.42694064E-09  1.42694064E-09  1.42694064E-09  1.42694064E-09  1.42694064E-09  1.42694064E-09
    1.42694064E-09  1.42694064E-09  1.42694064E-09  1.42694064E-09  7.92744800E-10  7.92744800E-10  7.92744800E-10  7.92744800E-10  7.92744800E-10  1.42694064E-09  3.80517504E-09  3.80517504E-09  1.42694064E-09  3.80517504E-09  -1.60134450E-09  -1.60134450E-09  -1.60134450E-09  3.01243024E-10  3.01243024E-10       0.00000000
         0.00000000       0.00000000
         0.00000000       0.00000000       0.00000000       0.00000000       0.00000000       0.00000000       0.00000000       0.00000000       0.00000000       0.00000000       0.00000000       0.00000000       0.00000000       0.00000000  1.42694064E-09  1.42694064E-09  1.42694064E-09  1.42694064E-09  1.42694064E-09  1.42694064E-09
    1.42694064E-09  1.42694064E-09  1.42694064E-09  1.42694064E-09  7.92744800E-10  7.92744800E-10  7.92744800E-10  7.92744800E-10  7.92744800E-10  1.42694064E-09  3.80517504E-09  3.90030441E-09  3.90030441E-09  3.90030441E-09  -1.60134450E-09  -1.60134450E-09  -1.60134450E-09  3.01243024E-10  3.01243024E-10       0.00000000
         0.00000000       0.00000000
         0.00000000       0.00000000       0.00000000       0.00000000       0.00000000       0.00000000       0.00000000       0.00000000       0.00000000       0.00000000       0.00000000       0.00000000       0.00000000       0.00000000  1.42694064E-09  1.42694064E-09  1.42694064E-09  1.42694064E-09  1.42694064E-09  1.42694064E-09
    1.42694064E-09  1.42694064E-09  1.42694064E-09  1.42694064E-09  7.92744800E-10  7.92744800E-10  7.92744800E-10  7.92744800E-10  7.92744800E-10  3.80517504E-09  3.90030441E-09  3.90030441E-09  3.90030441E-09  3.90030441E-09  1.90258752E-09  1.90258752E-09  1.99771689E-09  3.90030441E-09  3.80517504E-09       0.00000000
         0.00000000       0.00000000
         0.00000000       0.00000000       0.00000000       0.00000000       0.00000000       0.00000000       0.00000000       0.00000000       0.00000000       0.00000000       0.00000000       0.00000000       0.00000000       0.00000000  1.42694064E-09  1.42694064E-09  1.42694064E-09  1.42694064E-09  1.42694064E-09  1.42694064E-09
    1.42694064E-09  1.42694064E-09  1.42694064E-09  1.42694064E-09  7.92744800E-10  7.92744800E-10  7.92744800E-10  7.92744800E-10  7.92744800E-10  3.90030441E-09  3.90030441E-09  3.90030441E-09  3.90030441E-09  3.90030441E-09  1.90258752E-09  1.90258752E-09  1.90258752E-09  3.80517504E-09  3.80517504E-09       0.00000000
         0.00000000       0.00000000
         0.00000000       0.00000000       0.00000000       0.00000000       0.00000000       0.00000000       0.00000000       0.00000000       0.00000000       0.00000000       0.00000000       0.00000000       0.00000000       0.00000000  1.42694064E-09  1.42694064E-09  1.42694064E-09  1.42694064E-09  1.42694064E-09  1.42694064E-09
    1.42694064E-09  1.42694064E-09  1.42694064E-09  1.42694064E-09  7.92744800E-10  7.92744800E-10  7.92744800E-10  8.87874176E-10  8.87874176E-10  3.90030441E-09  3.90030441E-09  3.90030441E-09  3.90030441E-09  3.80517504E-09  1.90258752E-09  1.90258752E-09  1.90258752E-09  3.80517504E-09  3.80517504E-09       0.00000000
         0.00000000       0.00000000
         0.00000000       0.00000000       0.00000000       0.00000000       0.00000000       0.00000000       0.00000000       0.00000000       0.00000000       0.00000000       0.00000000       0.00000000       0.00000000       0.00000000       0.00000000       0.00000000       0.00000000       0.00000000       0.00000000       0.00000000
         0.00000000       0.00000000       0.00000000       0.00000000  7.92744800E-10  7.92744800E-10  8.87874176E-10  7.92744800E-10  7.92744800E-10  3.80517504E-09  3.80517504E-09  3.80517504E-09  3.80517504E-09  3.90030441E-09  1.99771689E-09  1.99771689E-09  1.90258752E-09  3.80517504E-09  3.80517504E-09       0.00000000
         0.00000000       0.00000000
         0.00000000       0.00000000       0.00000000       0.00000000       0.00000000       0.00000000       0.00000000       0.00000000       0.00000000       0.00000000       0.00000000       0.00000000       0.00000000       0.00000000       0.00000000       0.00000000       0.00000000       0.00000000       0.00000000       0.00000000
         0.00000000       0.00000000       0.00000000       0.00000000  8.87874176E-10  8.87874176E-10  7.92744800E-10  7.92744800E-10  7.92744800E-10  3.80517504E-09  3.80517504E-09  3.80517504E-09  3.80517504E-09  3.80517504E-09  3.80517504E-09  7.92744800E-10  3.80517504E-09  1.90258752E-09  1.90258752E-09       0.00000000
         0.00000000       0.00000000
         0.00000000       0.00000000       0.00000000       0.00000000       0.00000000       0.00000000       0.00000000       0.00000000       0.00000000       0.00000000       0.00000000       0.00000000       0.00000000       0.00000000       0.00000000       0.00000000       0.00000000       0.00000000       0.00000000       0.00000000
         0.00000000       0.00000000       0.00000000       0.00000000  8.87874176E-10  7.92744800E-10  3.80517504E-09  3.80517504E-09  3.80517504E-09  3.80517504E-09  3.80517504E-09  3.80517504E-09  3.80517504E-09  3.80517504E-09  3.80517504E-09  7.92744800E-10  7.92744800E-10  7.92744800E-10  7.92744800E-10       0.00000000
         0.00000000       0.00000000
         0.00000000       0.00000000       0.00000000       0.00000000       0.00000000       0.00000000       0.00000000       0.00000000       0.00000000       0.00000000       0.00000000       0.00000000       0.00000000       0.00000000       0.00000000       0.00000000       0.00000000       0.00000000       0.00000000       0.00000000
         0.00000000       0.00000000       0.00000000       0.00000000  7.92744800E-10  3.80517504E-09  3.80517504E-09  3.80517504E-09  3.80517504E-09  3.80517504E-09  3.80517504E-09  3.80517504E-09  3.80517504E-09  7.92744800E-10  7.92744800E-10  7.92744800E-10       0.00000000       0.00000000       0.00000000       0.00000000
         0.00000000       0.00000000
         0.00000000       0.00000000       0.00000000       0.00000000       0.00000000       0.00000000       0.00000000       0.00000000       0.00000000       0.00000000       0.00000000       0.00000000       0.00000000       0.00000000       0.00000000       0.00000000       0.00000000       0.00000000       0.00000000       0.00000000
         0.00000000       0.00000000       0.00000000       0.00000000  7.92744800E-10  7.92744800E-10  7.92744800E-10  7.92744800E-10  7.92744800E-10  7.92744800E-10  7.92744800E-10       0.00000000       0.00000000       0.00000000       0.00000000       0.00000000       0.00000000       0.00000000       0.00000000       0.00000000
         0.00000000       0.00000000
END period  1

