BEGIN options
  XORIGIN  6.20000000E+05
  YORIGIN  3.02400000E+06
END options

BEGIN dimensions
  NLAY  5
  NROW  38
  NCOL  42
END dimensions

BEGIN griddata
  delr
    INTERNAL  FACTOR  1.0
      1000.00000000    1000.00000000    1000.00000000    1000.00000000    1000.00000000    1000.00000000    1000.00000000    1000.00000000    1000.00000000    1000.00000000    1000.00000000    1000.00000000    1000.00000000    1000.00000000    1000.00000000    1000.00000000    1000.00000000    1000.00000000    1000.00000000    1000.00000000
      1000.00000000    1000.00000000    1000.00000000    1000.00000000    1000.00000000    1000.00000000    1000.00000000    1000.00000000    1000.00000000    1000.00000000    1000.00000000    1000.00000000    1000.00000000    1000.00000000    1000.00000000    1000.00000000    1000.00000000    1000.00000000    1000.00000000    1000.00000000
      1000.00000000    1000.00000000
  delc
    INTERNAL  FACTOR  1.0
      1000.00000000    1000.00000000    1000.00000000    1000.00000000    1000.00000000    1000.00000000    1000.00000000    1000.00000000    1000.00000000    1000.00000000    1000.00000000    1000.00000000    1000.00000000    1000.00000000    1000.00000000    1000.00000000    1000.00000000    1000.00000000    1000.00000000    1000.00000000
      1000.00000000    1000.00000000    1000.00000000    1000.00000000    1000.00000000    1000.00000000    1000.00000000    1000.00000000    1000.00000000    1000.00000000    1000.00000000    1000.00000000    1000.00000000    1000.00000000    1000.00000000    1000.00000000    1000.00000000    1000.00000000
  top
    INTERNAL  FACTOR  1.0
      7777.00000000    7777.00000000    7777.00000000    7777.00000000    7777.00000000    7777.00000000    7777.00000000    7777.00000000    7777.00000000    7777.00000000    7777.00000000    7777.00000000    7777.00000000    7777.00000000    7777.00000000    7777.00000000    7777.00000000    7777.00000000    7777.00000000    7777.00000000
      7777.00000000    7777.00000000    7777.00000000    7777.00000000    7777.00000000    7777.00000000    7777.00000000    7777.00000000      20.00000000      -3.00000000      -4.00000000       0.00000000       0.00000000      10.00000000      10.00000000      10.00000000      10.00000000      10.00000000      10.00000000      10.00000000
        10.00000000      10.00000000
      7777.00000000    7777.00000000    7777.00000000    7777.00000000    7777.00000000    7777.00000000    7777.00000000    7777.00000000    7777.00000000    7777.00000000    7777.00000000    7777.00000000    7777.00000000    7777.00000000    7777.00000000    7777.00000000    7777.00000000    7777.00000000    7777.00000000    7777.00000000
      7777.00000000    7777.00000000    7777.00000000    7777.00000000    7777.00000000    7777.00000000    7777.00000000      20.00000000       1.00000000      -2.00000000       0.00000000       0.00000000       0.00000000      10.00000000      10.00000000      10.00000000      10.00000000      10.00000000      10.00000000      10.00000000
        10.00000000      10.00000000
      7777.00000000    7777.00000000    7777.00000000    7777.00000000    7777.00000000    7777.00000000    7777.00000000    7777.00000000    7777.00000000    7777.00000000    7777.00000000    7777.00000000    7777.00000000    7777.00000000    7777.00000000    7777.00000000    7777.00000000    7777.00000000    7777.00000000    7777.00000000
      7777.00000000    7777.00000000    7777.00000000    7777.00000000    7777.00000000    7777.00000000      20.00000000      10.00000000       1.00000000      -1.00000000       0.00000000       0.00000000       0.00000000      10.00000000      10.00000000      10.00000000      10.00000000      10.00000000      10.00000000      10.00000000
        10.00000000      10.00000000
      7777.00000000    7777.00000000    7777.00000000    7777.00000000    7777.00000000    7777.00000000    7777.00000000    7777.00000000    7777.00000000    7777.00000000    7777.00000000    7777.00000000    7777.00000000    7777.00000000    7777.00000000    7777.00000000    7777.00000000    7777.00000000    7777.00000000    7777.00000000
      7777.00000000    7777.00000000      30.00000000      17.00000000      -3.00000000     -18.00000000      23.00000000      15.00000000       5.00000000       2.00000000      -2.00000000       0.00000000       0.00000000       0.00000000       0.00000000       0.00000000      10.00000000      10.00000000      10.00000000      10.00000000
        10.00000000      10.00000000
      7777.00000000    7777.00000000    7777.00000000    7777.00000000    7777.00000000    7777.00000000    7777.00000000    7777.00000000    7777.00000000    7777.00000000    7777.00000000    7777.00000000    7777.00000000    7777.00000000    7777.00000000    7777.00000000    7777.00000000    7777.00000000    7777.00000000    7777.00000000
      7777.00000000      25.00000000      60.00000000      55.00000000      42.00000000      30.00000000      20.00000000      10.00000000       8.00000000       5.00000000      -1.00000000      -3.00000000       0.00000000       0.00000000       0.00000000       0.00000000      10.00000000      10.00000000      10.00000000      10.00000000
        10.00000000      10.00000000
      7777.00000000    7777.00000000    7777.00000000    7777.00000000    7777.00000000    7777.00000000    7777.00000000    7777.00000000    7777.00000000    7777.00000000    7777.00000000    7777.00000000    7777.00000000    7777.00000000    7777.00000000    7777.00000000    7777.00000000    7777.00000000    7777.00000000    7777.00000000
        30.00000000      25.00000000      55.00000000      48.00000000      36.00000000      23.00000000      18.00000000      13.00000000       8.00000000       6.00000000       3.00000000      -2.00000000       0.00000000       0.00000000       0.00000000       0.00000000      10.00000000      10.00000000      10.00000000      10.00000000
        10.00000000      10.00000000
      7777.00000000    7777.00000000    7777.00000000    7777.00000000    7777.00000000    7777.00000000    7777.00000000    7777.00000000    7777.00000000    7777.00000000    7777.00000000    7777.00000000    7777.00000000    7777.00000000    7777.00000000    7777.00000000    7777.00000000    7777.00000000    7777.00000000    7777.00000000
        30.00000000      20.00000000      45.00000000      40.00000000      29.00000000      25.00000000      17.00000000      13.00000000       9.00000000       6.00000000       4.00000000       0.00000000      -4.00000000      -7.50000000     -10.00000000       0.00000000       0.00000000       0.00000000      10.00000000      10.00000000
        10.00000000      10.00000000
      7777.00000000    7777.00000000    7777.00000000    7777.00000000    7777.00000000    7777.00000000    7777.00000000    7777.00000000    7777.00000000    7777.00000000    7777.00000000    7777.00000000    7777.00000000    7777.00000000    7777.00000000    7777.00000000    7777.00000000    7777.00000000    7777.00000000    7777.00000000
        44.00000000      40.00000000      35.00000000      32.00000000      25.00000000      19.00000000      16.00000000      15.00000000      12.00000000      10.00000000       7.00000000       0.00000000      -2.50000000      -6.00000000      -9.00000000     -12.50000000       0.00000000       0.00000000      10.00000000      10.00000000
        10.00000000      10.00000000
      7777.00000000    7777.00000000    7777.00000000    7777.00000000    7777.00000000    7777.00000000    7777.00000000    7777.00000000    7777.00000000    7777.00000000    7777.00000000    7777.00000000    7777.00000000    7777.00000000    7777.00000000    7777.00000000    7777.00000000    7777.00000000    7777.00000000      30.00000000
        31.00000000      21.00000000      28.00000000      28.00000000      22.00000000      20.00000000      18.00000000      14.00000000      13.00000000       8.00000000       6.00000000       0.00000000      -2.50000000      -4.00000000      -6.00000000      -9.00000000       1.00000000       1.00000000      10.00000000      10.00000000
        10.00000000      10.00000000
      7777.00000000    7777.00000000    7777.00000000    7777.00000000    7777.00000000    7777.00000000    7777.00000000    7777.00000000    7777.00000000    7777.00000000    7777.00000000    7777.00000000    7777.00000000    7777.00000000    7777.00000000    7777.00000000    7777.00000000    7777.00000000    7777.00000000    7777.00000000
        40.00000000      35.00000000      24.00000000      20.00000000      18.00000000      16.00000000      13.00000000      15.00000000      13.00000000       9.00000000       8.00000000       2.00000000       0.00000000      -2.50000000      -5.00000000      -7.00000000       1.00000000       0.00000000      10.00000000      10.00000000
        10.00000000      10.00000000
      7777.00000000    7777.00000000    7777.00000000    7777.00000000    7777.00000000    7777.00000000    7777.00000000    7777.00000000    7777.00000000    7777.00000000    7777.00000000    7777.00000000    7777.00000000    7777.00000000    7777.00000000    7777.00000000    7777.00000000    7777.00000000    7777.00000000      30.00000000
        25.00000000       0.00000000      40.00000000      30.00000000      20.00000000      27.00000000      15.00000000      10.00000000       9.00000000       9.00000000       9.00000000       6.00000000       0.00000000      -5.00000000      -7.50000000     -10.00000000       2.00000000       0.00000000      10.00000000      10.00000000
        10.00000000      10.00000000
      7777.00000000    7777.00000000    7777.00000000    7777.00000000    7777.00000000    7777.00000000    7777.00000000    7777.00000000    7777.00000000    7777.00000000    7777.00000000    7777.00000000    7777.00000000    7777.00000000    7777.00000000    7777.00000000    7777.00000000    7777.00000000      35.00000000      30.00000000
        25.00000000       0.00000000     -10.00000000      40.00000000      30.00000000      25.00000000      16.00000000      11.00000000      11.00000000       8.00000000       7.00000000       5.00000000      -5.00000000      -8.00000000     -10.00000000     -15.00000000     -17.50000000       0.00000000      10.00000000      10.00000000
        10.00000000      10.00000000
      7777.00000000    7777.00000000    7777.00000000    7777.00000000    7777.00000000    7777.00000000    7777.00000000    7777.00000000    7777.00000000    7777.00000000    7777.00000000    7777.00000000    7777.00000000    7777.00000000    7777.00000000    7777.00000000    7777.00000000      40.00000000      35.00000000      30.00000000
        25.00000000      20.00000000       0.00000000      -7.00000000     -15.00000000     -25.00000000      19.00000000      15.00000000      10.00000000       9.00000000       7.00000000       6.00000000      -2.00000000      -7.50000000     -13.00000000     -17.00000000     -18.00000000       0.00000000      10.00000000      10.00000000
        10.00000000      10.00000000
      7777.00000000    7777.00000000    7777.00000000    7777.00000000    7777.00000000    7777.00000000    7777.00000000    7777.00000000    7777.00000000    7777.00000000    7777.00000000    7777.00000000    7777.00000000    7777.00000000    7777.00000000    7777.00000000    7777.00000000      41.00000000      36.00000000      31.00000000
        25.00000000      20.00000000       0.00000000      -7.00000000     -15.00000000     -25.00000000      22.00000000      27.00000000      14.00000000      12.00000000      11.00000000       9.00000000       0.00000000      -5.00000000     -12.50000000     -18.00000000     -20.00000000       0.00000000      10.00000000      10.00000000
        10.00000000      10.00000000
      7777.00000000    7777.00000000    7777.00000000    7777.00000000    7777.00000000    7777.00000000    7777.00000000    7777.00000000    7777.00000000    7777.00000000    7777.00000000    7777.00000000    7777.00000000    7777.00000000      50.00000000      45.00000000      40.00000000      35.00000000      32.00000000      27.00000000
        25.00000000       0.00000000      -6.00000000      -7.00000000     -15.00000000      29.00000000      20.00000000      17.00000000      10.00000000       8.00000000       6.00000000       4.00000000       2.00000000       0.00000000      -8.00000000     -17.00000000     -20.00000000       0.00000000      10.00000000      10.00000000
        10.00000000      10.00000000
      7777.00000000    7777.00000000    7777.00000000    7777.00000000    7777.00000000    7777.00000000    7777.00000000    7777.00000000    7777.00000000    7777.00000000    7777.00000000      70.00000000      60.00000000      50.00000000      45.00000000      35.00000000      30.00000000      25.00000000      20.00000000       5.00000000
         0.00000000     -25.00000000     -25.00000000      40.00000000      27.00000000      25.00000000      22.00000000      20.00000000      12.00000000      11.00000000       8.00000000       6.00000000       3.00000000       0.00000000      -3.00000000     -10.00000000       1.00000000       0.00000000      10.00000000      10.00000000
        10.00000000      10.00000000
      7777.00000000    7777.00000000    7777.00000000    7777.00000000    7777.00000000    7777.00000000    7777.00000000    7777.00000000      90.00000000      76.00000000      70.00000000      60.00000000      50.00000000      40.00000000      30.00000000      25.00000000      20.00000000      10.00000000      60.00000000      55.00000000
        47.00000000      40.00000000      40.00000000      40.00000000      25.00000000      25.00000000      23.00000000      21.00000000      19.00000000      20.00000000     -48.00000000     -50.00000000     -55.00000000     -60.00000000     -75.00000000      -4.00000000      -5.00000000       0.00000000      10.00000000      10.00000000
        10.00000000      10.00000000
      7777.00000000    7777.00000000    7777.00000000    7777.00000000    7777.00000000    7777.00000000     115.00000000     114.00000000     106.00000000      99.00000000     100.00000000     100.00000000      85.00000000      85.00000000      80.00000000      70.00000000      60.00000000      60.00000000      60.00000000      60.00000000
        43.00000000      41.00000000      34.00000000      32.00000000      29.00000000      25.00000000     -30.00000000     -35.00000000     -40.00000000     -45.00000000     -48.00000000     -50.00000000     -52.00000000     -55.00000000       5.00000000       2.00000000       1.00000000       0.00000000      10.00000000      10.00000000
        10.00000000      10.00000000
      7777.00000000    7777.00000000    7777.00000000    7777.00000000     120.00000000     120.00000000     116.00000000     105.00000000     105.00000000     100.00000000      97.00000000      91.00000000      84.00000000      72.00000000      64.00000000      60.00000000      65.00000000      60.00000000      51.00000000      47.00000000
        42.00000000      51.00000000      49.00000000      38.00000000      30.00000000     -25.00000000     -30.00000000     -35.00000000     -39.00000000     -44.00000000     -47.00000000     -50.00000000     -51.00000000     -52.00000000       2.00000000     -75.00000000       5.00000000       0.00000000      10.00000000      10.00000000
        10.00000000      10.00000000
      7777.00000000    7777.00000000    7777.00000000     140.00000000     127.00000000     125.00000000     120.00000000     115.00000000     115.00000000     110.00000000     112.00000000     110.00000000      84.00000000      80.00000000      75.00000000      68.00000000      64.00000000      60.00000000      66.00000000      62.00000000
        56.00000000      46.00000000      47.00000000      43.00000000      36.00000000     -10.00000000     -25.00000000     -30.00000000     -35.00000000     -40.00000000     -45.00000000     -50.00000000     -51.00000000     -52.00000000       2.00000000       0.00000000       1.00000000       0.00000000      10.00000000      10.00000000
        10.00000000      10.00000000
      7777.00000000     280.00000000     141.00000000     130.00000000     145.00000000     150.00000000     130.00000000     130.00000000     125.00000000     120.00000000     115.00000000     110.00000000      97.00000000      94.00000000      91.00000000      85.00000000      80.00000000      75.00000000      73.00000000      70.00000000
        60.00000000      60.00000000      51.00000000      10.00000000       5.00000000       0.00000000     -10.00000000     -25.00000000     -35.00000000     -40.00000000     -45.00000000     -50.00000000     -51.00000000     -52.00000000       1.00000000       1.00000000       0.00000000       0.00000000      10.00000000      10.00000000
        10.00000000      10.00000000
       163.00000000     163.00000000     157.00000000     160.00000000     150.00000000     155.00000000     142.00000000     140.00000000     133.00000000     125.00000000     120.00000000     115.00000000     100.00000000     100.00000000      95.00000000      85.00000000      85.00000000      80.00000000      78.00000000      75.00000000
        65.00000000      66.00000000      55.00000000       0.00000000       0.00000000       0.00000000     -12.00000000     -25.00000000     -37.00000000     -42.00000000     -45.00000000     -50.00000000       7.00000000       4.00000000       5.00000000       1.00000000       0.00000000       0.00000000      10.00000000      10.00000000
        10.00000000      10.00000000
       180.00000000     160.00000000     160.00000000     160.00000000    7777.00000000    7777.00000000    7777.00000000     110.00000000     105.00000000     136.00000000     127.00000000     115.00000000     105.00000000     100.00000000      88.00000000      85.00000000      80.00000000      78.00000000      73.00000000      71.00000000
        70.00000000      -5.00000000      -8.00000000     -12.00000000     -16.00000000     -20.00000000     -22.00000000     -25.00000000      19.00000000      17.00000000      15.00000000      13.00000000       7.00000000       5.00000000       2.00000000       1.00000000       0.00000000       0.00000000      10.00000000      10.00000000
        10.00000000      10.00000000
       330.00000000    7777.00000000    7777.00000000    7777.00000000    7777.00000000    7777.00000000    7777.00000000    7777.00000000    7777.00000000     103.00000000     102.00000000     127.00000000     101.00000000      95.00000000      92.00000000      87.00000000      85.00000000      45.00000000      35.00000000      25.00000000
         0.00000000      -5.00000000      -5.00000000       0.00000000       0.00000000      -5.00000000     -25.00000000     -30.00000000     -35.00000000      18.00000000      13.00000000      10.00000000       6.00000000       4.00000000       2.00000000       1.00000000       1.00000000       0.00000000      10.00000000      10.00000000
        10.00000000      10.00000000
      7777.00000000    7777.00000000    7777.00000000    7777.00000000    7777.00000000    7777.00000000    7777.00000000    7777.00000000    7777.00000000    7777.00000000     103.00000000     102.00000000     100.00000000     101.00000000      96.00000000      70.00000000      60.00000000      50.00000000      35.00000000      25.00000000
        10.00000000       0.00000000      10.00000000      12.00000000      10.00000000       0.00000000     -25.00000000     -30.00000000      28.00000000      15.00000000      16.00000000       8.00000000       8.00000000       5.00000000       4.00000000       3.00000000       2.00000000       1.00000000      10.00000000      10.00000000
        10.00000000      10.00000000
      7777.00000000    7777.00000000    7777.00000000    7777.00000000    7777.00000000    7777.00000000    7777.00000000    7777.00000000    7777.00000000    7777.00000000    7777.00000000     105.00000000     102.00000000     100.00000000      85.00000000      75.00000000      65.00000000      60.00000000      50.00000000      25.00000000
        10.00000000       8.00000000      10.00000000      12.00000000      10.00000000       0.00000000     -25.00000000     -30.00000000      10.00000000       9.00000000     -60.00000000       9.00000000       9.00000000       6.00000000      -3.00000000      -6.00000000       1.00000000       1.00000000      10.00000000      10.00000000
        10.00000000      10.00000000
      7777.00000000    7777.00000000    7777.00000000    7777.00000000    7777.00000000    7777.00000000    7777.00000000    7777.00000000    7777.00000000    7777.00000000    7777.00000000    7777.00000000     105.00000000     102.00000000     100.00000000      75.00000000      65.00000000      60.00000000      50.00000000      25.00000000
        15.00000000      12.00000000      10.00000000      12.00000000       0.00000000     -15.00000000     -25.00000000     -30.00000000      16.00000000       9.00000000      11.00000000      12.00000000       3.00000000      -1.00000000     -55.00000000      -6.00000000       3.00000000       1.00000000      10.00000000      10.00000000
        10.00000000      10.00000000
      7777.00000000    7777.00000000    7777.00000000    7777.00000000    7777.00000000    7777.00000000    7777.00000000    7777.00000000    7777.00000000    7777.00000000    7777.00000000    7777.00000000    7777.00000000     105.00000000     100.00000000      75.00000000      65.00000000      50.00000000      35.00000000      25.00000000
        15.00000000      12.00000000      10.00000000      10.00000000       0.00000000     -15.00000000     -22.00000000     -30.00000000     -40.00000000      12.00000000      11.00000000      12.00000000      10.00000000     -50.00000000     -55.00000000      -4.00000000       3.00000000       1.00000000      10.00000000      10.00000000
        10.00000000      10.00000000
      7777.00000000    7777.00000000    7777.00000000    7777.00000000    7777.00000000    7777.00000000    7777.00000000    7777.00000000    7777.00000000    7777.00000000    7777.00000000    7777.00000000    7777.00000000    7777.00000000     105.00000000     100.00000000      75.00000000      50.00000000      25.00000000      20.00000000
        15.00000000      12.00000000      10.00000000      10.00000000     -10.00000000     -25.00000000     -30.00000000     -35.00000000     -40.00000000     -45.00000000      21.00000000      10.00000000     -45.00000000      12.00000000       2.50000000      -1.00000000      -5.00000000       2.00000000       0.00000000      10.00000000
        10.00000000      10.00000000
      7777.00000000    7777.00000000    7777.00000000    7777.00000000    7777.00000000    7777.00000000    7777.00000000    7777.00000000    7777.00000000    7777.00000000    7777.00000000    7777.00000000    7777.00000000    7777.00000000     102.00000000     100.00000000      75.00000000      40.00000000      35.00000000      27.00000000
        22.00000000      14.00000000      12.00000000      12.00000000     -12.00000000     -25.00000000     -30.00000000     -35.00000000     -40.00000000     -45.00000000      21.00000000      19.00000000      15.00000000      10.00000000       4.00000000       0.00000000      -2.00000000       1.00000000       0.00000000      10.00000000
        10.00000000      10.00000000
      7777.00000000    7777.00000000    7777.00000000    7777.00000000    7777.00000000    7777.00000000    7777.00000000    7777.00000000    7777.00000000    7777.00000000    7777.00000000    7777.00000000    7777.00000000    7777.00000000     105.00000000     100.00000000      60.00000000      50.00000000      35.00000000      27.00000000
        25.00000000      14.00000000      12.00000000      12.00000000     -12.00000000     -25.00000000     -30.00000000     -35.00000000     -40.00000000      25.00000000      21.00000000      18.00000000      15.00000000       7.00000000       5.00000000       5.00000000      -5.00000000       2.00000000       0.00000000      10.00000000
        10.00000000      10.00000000
      7777.00000000    7777.00000000    7777.00000000    7777.00000000    7777.00000000    7777.00000000    7777.00000000    7777.00000000    7777.00000000    7777.00000000    7777.00000000    7777.00000000    7777.00000000    7777.00000000     110.00000000     105.00000000      80.00000000      50.00000000      45.00000000      25.00000000
        20.00000000      20.00000000      13.00000000      12.00000000     -12.00000000     -25.00000000     -30.00000000      32.00000000      29.00000000      23.00000000      24.00000000      20.00000000      11.00000000       7.00000000       5.00000000       2.00000000      -4.00000000       3.00000000       0.00000000      10.00000000
        10.00000000      10.00000000
      7777.00000000    7777.00000000    7777.00000000    7777.00000000    7777.00000000    7777.00000000    7777.00000000    7777.00000000    7777.00000000    7777.00000000    7777.00000000    7777.00000000    7777.00000000    7777.00000000     120.00000000     115.00000000      90.00000000      60.00000000      45.00000000      35.00000000
        25.00000000      17.00000000      14.00000000      12.00000000     -12.00000000     -30.00000000      37.00000000      28.00000000      29.00000000      28.00000000      25.00000000      31.00000000      20.00000000      18.00000000       6.00000000       3.00000000      -2.00000000      -6.00000000       0.00000000      10.00000000
        10.00000000      10.00000000
      7777.00000000    7777.00000000    7777.00000000    7777.00000000    7777.00000000    7777.00000000    7777.00000000    7777.00000000    7777.00000000    7777.00000000    7777.00000000    7777.00000000    7777.00000000    7777.00000000    7777.00000000    7777.00000000    7777.00000000    7777.00000000    7777.00000000    7777.00000000
      7777.00000000    7777.00000000    7777.00000000    7777.00000000     -12.00000000      38.00000000      45.00000000      40.00000000      35.00000000      35.00000000      32.00000000      30.00000000      28.00000000      33.00000000      28.00000000      19.00000000      -2.00000000      -5.00000000       1.00000000      10.00000000
        10.00000000      10.00000000
      7777.00000000    7777.00000000    7777.00000000    7777.00000000    7777.00000000    7777.00000000    7777.00000000    7777.00000000    7777.00000000    7777.00000000    7777.00000000    7777.00000000    7777.00000000    7777.00000000    7777.00000000    7777.00000000    7777.00000000    7777.00000000    7777.00000000    7777.00000000
      7777.00000000    7777.00000000    7777.00000000    7777.00000000      43.00000000      45.00000000      50.00000000      50.00000000      52.00000000      47.00000000      50.00000000      40.00000000      44.00000000      50.00000000      38.00000000     -45.00000000      15.00000000      -5.00000000       3.00000000      10.00000000
        10.00000000      10.00000000
      7777.00000000    7777.00000000    7777.00000000    7777.00000000    7777.00000000    7777.00000000    7777.00000000    7777.00000000    7777.00000000    7777.00000000    7777.00000000    7777.00000000    7777.00000000    7777.00000000    7777.00000000    7777.00000000    7777.00000000    7777.00000000    7777.00000000    7777.00000000
      7777.00000000    7777.00000000    7777.00000000    7777.00000000      75.00000000      60.00000000      60.00000000      64.00000000      70.00000000      70.00000000      65.00000000      63.00000000      61.00000000      52.00000000      48.00000000     -45.00000000     -50.00000000     -60.00000000     -65.00000000      10.00000000
        10.00000000      10.00000000
      7777.00000000    7777.00000000    7777.00000000    7777.00000000    7777.00000000    7777.00000000    7777.00000000    7777.00000000    7777.00000000    7777.00000000    7777.00000000    7777.00000000    7777.00000000    7777.00000000    7777.00000000    7777.00000000    7777.00000000    7777.00000000    7777.00000000    7777.00000000
      7777.00000000    7777.00000000    7777.00000000    7777.00000000      15.00000000     104.00000000     105.00000000     100.00000000      90.00000000      80.00000000      80.00000000      76.00000000     100.00000000     -45.00000000     -50.00000000     -45.00000000    7777.00000000    7777.00000000    7777.00000000    7777.00000000
      7777.00000000    7777.00000000
      7777.00000000    7777.00000000    7777.00000000    7777.00000000    7777.00000000    7777.00000000    7777.00000000    7777.00000000    7777.00000000    7777.00000000    7777.00000000    7777.00000000    7777.00000000    7777.00000000    7777.00000000    7777.00000000    7777.00000000    7777.00000000    7777.00000000    7777.00000000
      7777.00000000    7777.00000000    7777.00000000    7777.00000000      10.00000000       5.00000000       0.00000000      -5.00000000     -10.00000000     -15.00000000     -25.00000000    7777.00000000    7777.00000000    7777.00000000    7777.00000000    7777.00000000    7777.00000000    7777.00000000    7777.00000000    7777.00000000
      7777.00000000    7777.00000000
  botm  LAYERED
    INTERNAL  FACTOR  1.0
         150.00000000     150.00000000     150.00000000     150.00000000     150.00000000     150.00000000     150.00000000     150.00000000     150.00000000     150.00000000     150.00000000     150.00000000     150.00000000     150.00000000     150.00000000     150.00000000     150.00000000     150.00000000     150.00000000     150.00000000
         150.00000000     150.00000000     150.00000000     150.00000000     150.00000000     150.00000000     150.00000000     150.00000000      19.90000000      -5.00000000      -6.00000000     -10.00000000     -15.00000000      -5.00000000      -5.00000000      -5.00000000      -5.00000000      -1.00000000     -10.00000000     -26.80000000
         -29.70000000     -30.20000000