BEGIN options
END options

BEGIN packages
  DIS6  test_perma.dis  dis
  IC6  test_perma.ic  ic
  NPF6  test_perma.npf  npf
  RCH6  test_perma.rcha  rcha
  OC6  test_perma.oc  oc
  CHD6  sea.chd  sea
  WEL6  well.wel  well
  DRN6  debordement.drn  debordement
END packages

