BEGIN options
  SAVE_FLOWS
  ALTERNATIVE_CELL_AVERAGING  amt-hmk
  VARIABLECV  DEWATERED
  SAVE_SPECIFIC_DISCHARGE
END options

BEGIN griddata
  icelltype  LAYERED
    CONSTANT  1
    CONSTANT  0
    CONSTANT  0
    CONSTANT  0
    CONSTANT  0
  k  LAYERED
    INTERNAL  FACTOR  1.0
           0.00000000       0.00000000       0.00000000       0.00000000       0.00000000       0.00000000       0.00000000       0.00000000       0.00000000       0.00000000       0.00000000       0.00000000       0.00000000       0.00000000       0.00000000       0.00000000       0.00000000       0.00000000       0.00000000       0.00000000
           0.00000000       0.00000000       0.00000000       0.00000000       0.00000000       0.00000000       0.00000000       0.00000000       0.00000000       0.00300000       0.00300000       0.00300000  1.00000000E-04  1.00000000E-04  1.00000000E-04  1.00000000E-04  1.00000000E-04  1.00000000E-04  1.00000000E-04  1.00000000E-04
      1.00000000E-04  1.00000000E-04
           0.00000000       0.00000000       0.00000000       0.00000000       0.00000000       0.00000000       0.00000000       0.00000000       0.00000000       0.00000000       0.00000000       0.00000000       0.00000000       0.00000000       0.00000000       0.00000000       0.00000000       0.00000000       0.00000000       0.00000000
           0.00000000       0.00000000       0.00000000       0.00000000       0.00000000       0.00000000       0.00000000       0.00000000  3.00000000E-04       0.00300000       0.00300000  1.00000000E-04  1.00000000E-04  1.00000000E-04  1.00000000E-04  1.00000000E-04  1.00000000E-04  1.00000000E-04  1.00000000E-04  1.00000000E-04
      1.00000000E-04  1.00000000E-04
           0.00000000       0.00000000       0.00000000       0.00000000       0.00000000       0.00000000       0.00000000       0.00000000       0.00000000       0.00000000       0.00000000       0.00000000       0.00000000       0.00000000       0.00000000       0.00000000       0.00000000       0.00000000       0.00000000       0.00000000
           0.00000000       0.00000000       0.00000000       0.00000000       0.00000000       0.00000000       0.00000000  3.00000000E-04  3.00000000E-04       0.00300000       0.00300000  1.00000000E-04  1.00000000E-04  1.00000000E-04  1.00000000E-04  1.00000000E-04  1.00000000E-04  1.00000000E-04  1.00000000E-04  1.00000000E-04
      1.00000000E-04  1.00000000E-04
           0.00000000       0.00000000       0.00000000       0.00000000       0.00000000       0.00000000       0.00000000       0.00000000       0.00000000       0.00000000       0.00000000       0.00000000       0.00000000       0.00000000       0.00000000       0.00000000       0.00000000       0.00000000       0.00000000       0.00000000
           0.00000000       0.00000000       0.00000000       0.00000000       0.00000000       0.00000000  3.00000000E-04  3.00000000E-04       0.00150000       0.00300000       0.00300000       0.00300000  1.00000000E-04  1.00000000E-04  1.00000000E-04  1.00000000E-04  1.00000000E-04  1.00000000E-04  1.00000000E-04  1.00000000E-04
      1.00000000E-04  1.00000000E-04
           0.00000000       0.00000000       0.00000000       0.00000000       0.00000000       0.00000000       0.00000000       0.00000000       0.00000000       0.00000000       0.00000000       0.00000000       0.00000000       0.00000000       0.00000000       0.00000000       0.00000000       0.00000000       0.00000000       0.00000000
           0.00000000       0.00000000  1.00000000E-05  5.00000000E-05  1.00000000E-04  1.00000000E-04  3.00000000E-04  3.00000000E-04       0.00150000       0.00300000       0.00300000       0.00300000  1.00000000E-04  1.00000000E-04  1.00000000E-04  1.00000000E-04  1.00000000E-04  1.00000000E-04  1.00000000E-04  1.00000000E-04
      1.00000000E-04  1.00000000E-04
           0.00000000       0.00000000       0.00000000       0.00000000       0.00000000       0.00000000       0.00000000       0.00000000       0.00000000       0.00000000       0.00000000       0.00000000       0.00000000       0.00000000       0.00000000       0.00000000       0.00000000       0.00000000       0.00000000       0.00000000
           0.00000000       0.00000000  1.00000000E-04  1.00000000E-04  1.00000000E-04  1.00000000E-04  3.00000000E-04       0.00150000       0.00150000       0.00300000       0.00300000       0.00300000       0.00300000  1.00000000E-04  1.00000000E-04  1.00000000E-04  1.00000000E-04  1.00000000E-04  1.00000000E-04  1.00000000E-04
      1.00000000E-04  1.00000000E-04
           0.00000000       0.00000000       0.00000000       0.00000000       0.00000000       0.00000000       0.00000000       0.00000000       0.00000000       0.00000000       0.00000000       0.00000000       0.00000000       0.00000000       0.00000000       0.00000000       0.00000000       0.00000000       0.00000000       0.00000000
           0.00000000       0.00000000  1.00000000E-04  1.00000000E-04  1.00000000E-04  1.00000000E-04  3.00000000E-04       0.00150000       0.00150000       0.00300000       0.00300000       0.00300000       0.00300000       0.00300000  1.00000000E-04  1.00000000E-04  1.00000000E-04  1.00000000E-04  1.00000000E-04  1.00000000E-04
      1.00000000E-04  1.00000000E-04
           0.00000000       0.00000000       0.00000000       0.00000000       0.00000000       0.00000000       0.00000000       0.00000000       0.00000000       0.00000000       0.00000000       0.00000000       0.00000000       0.00000000       0.00000000       0.00000000       0.00000000       0.00000000       0.00000000       0.00000000
      1.00000000E-04  1.00000000E-04  1.00000000E-04  1.00000000E-04  1.00000000E-04  1.00000000E-04  3.00000000E-04  3.00000000E-04  3.00000000E-04       0.00300000       0.00300000       0.00300000       0.00300000       0.00300000       0.00300000  1.00000000E-04       0.00300000  1.00000000E-04  1.00000000E-04  1.00000000E-04
      1.00000000E-04  1.00000000E-04
           0.00000000       0.00000000       0.00000000       0.00000000       0.00000000       0.00000000       0.00000000       0.00000000       0.00000000       0.00000000       0.00000000       0.00000000       0.00000000       0.00000000       0.00000000       0.00000000       0.00000000       0.00000000       0.00000000       0.00000000
      1.00000000E-04  3.00000000E-04  3.00000000E-04  3.00000000E-04  3.00000000E-04  3.00000000E-04  3.00000000E-04  3.00000000E-04  3.00000000E-04       0.00300000       0.00300000       0.00300000       0.00300000       0.00300000       0.00300000       0.00300000       0.00300000  1.00000000E-04  1.00000000E-04  1.00000000E-04
      1.00000000E-04  1.00000000E-04
           0.00000000       0.00000000       0.00000000       0.00000000       0.00000000       0.00000000       0.00000000       0.00000000       0.00000000       0.00000000       0.00000000       0.00000000       0.00000000       0.00000000       0.00000000       0.00000000       0.00000000       0.00000000       0.00000000       0.00000000
      1.00000000E-04  3.00000000E-04  3.00000000E-04  3.00000000E-04  3.00000000E-04  3.00000000E-04  3.00000000E-04  3.00000000E-04  3.00000000E-04       0.00150000       0.00150000       0.00150000       0.00150000       0.00300000       0.00300000       0.00300000       0.00300000  1.00000000E-04  1.00000000E-04  1.00000000E-04
      1.00000000E-04  1.00000000E-04
           0.00000000       0.00000000       0.00000000       0.00000000       0.00000000       0.00000000       0.00000000       0.00000000       0.00000000       0.00000000       0.00000000       0.00000000       0.00000000       0.00000000       0.00000000       0.00000000       0.00000000       0.00000000       0.00000000       0.00000000
           0.00000000       0.00000000       0.00000000  3.00000000E-04  3.00000000E-04  3.00000000E-04  3.00000000E-04  3.00000000E-04  3.00000000E-04       0.00150000       0.00150000       0.00150000       0.00150000       0.00300000       0.00300000       0.00300000       0.00300000  1.00000000E-04  1.00000000E-04  1.00000000E-04
      1.00000000E-04  1.00000000E-04
           0.00000000       0.00000000       0.00000000       0.00000000       0.00000000       0.00000000       0.00000000       0.00000000       0.00000000       0.00000000       0.00000000       0.00000000       0.00000000       0.00000000       0.00000000       0.00000000       0.00000000       0.00000000       0.00000000       0.00000000
           0.00000000       0.00000000       0.00000000       0.00000000       0.00000000       0.00000000  1.00000000E-04  1.00000000E-04       0.00150000       0.00150000       0.00150000       0.00150000       0.00150000       0.00300000       0.00300000       0.00300000       0.00300000  1.00000000E-04  1.00000000E-04  1.00000000E-04
      1.00000000E-04  1.00000000E-04
           0.00000000       0.00000000       0.00000000       0.00000000       0.00000000       0.00000000       0.00000000       0.00000000       0.00000000       0.00000000       0.00000000       0.00000000       0.00000000       0.00000000       0.00000000       0.00000000       0.00000000       0.00000000       0.00000000       0.00000000
           0.00000000       0.00000000       0.00000000       0.00000000       0.00000000       0.00000000  1.00000000E-04  1.00000000E-04       0.00100000       0.00100000       0.00100000       0.00100000       0.00100000       0.00100000       0.00100000       0.00300000       0.00300000  1.00000000E-04  1.00000000E-04  1.00000000E-04
      1.00000000E-04  1.00000000E-04
           0.00000000       0.00000000       0.00000000       0.00000000       0.00000000       0.00000000       0.00000000       0.00000000       0.00000000       0.00000000       0.00000000       0.00000000       0.00000000       0.00000000       0.00000000       0.00000000       0.00000000       0.00000000       0.00000000       0.00000000
           0.00000000       0.00000000       0.00000000       0.00000000       0.00000000       0.00000000  1.00000000E-04  2.00000000E-04       0.00100000       0.00100000       0.00100000       0.00100000       0.00100000       0.00100000       0.00100000       0.00300000       0.00300000  1.00000000E-04  1.00000000E-04  1.00000000E-04
      1.00000000E-04  1.00000000E-04
           0.00000000       0.00000000       0.00000000       0.00000000       0.00000000       0.00000000       0.00000000       0.00000000       0.00000000       0.00000000       0.00000000       0.00000000       0.00000000       0.00000000       0.00000000       0.00000000       0.00000000       0.00000000       0.00000000       0.00000000
           0.00000000       0.00000000       0.00000000       0.00000000       0.00000000  1.00000000E-04  2.00000000E-04  2.00000000E-04       0.00100000       0.00100000       0.00100000       0.00100000       0.00100000       0.00100000       0.00100000       0.00300000       0.00300000  1.00000000E-04  1.00000000E-04  1.00000000E-04
      1.00000000E-04  1.00000000E-04
           0.00000000       0.00000000       0.00000000       0.00000000       0.00000000       0.00000000       0.00000000       0.00000000       0.00000000       0.00000000       0.00000000       0.00000000       0.00000000       0.00000000       0.00000000       0.00000000       0.00000000       0.00000000       0.00000000       0.00000000
           0.00000000       0.00000000       0.00000000  5.00000000E-05  1.00000000E-04  3.00000000E-04  2.00000000E-04  2.00000000E-04  2.00000000E-04  2.00000000E-04  2.00000000E-04  2.00000000E-04  2.00000000E-04  2.00000000E-04  2.00000000E-04       0.00300000       0.00300000  1.00000000E-04  1.00000000E-04  1.00000000E-04
      1.00000000E-04  1.00000000E-04
           0.00000000       0.00000000       0.00000000       0.00000000       0.00000000       0.00000000       0.00000000       0.00000000       0.00000000       0.00000000       0.00000000       0.00000000       0.00000000       0.00000000       0.00000000       0.00000000       0.00000000       0.00000000  3.00000000E-05  3.00000000E-05
      3.00000000E-05  3.00000000E-05  3.00000000E-05  5.00000000E-04  3.00000000E-04  3.00000000E-04  2.00000000E-04  2.00000000E-04  2.00000000E-04  2.00000000E-04       0.00000000       0.00000000       0.00000000       0.00000000       0.00000000       0.00300000       0.00300000  1.00000000E-04  1.00000000E-04  1.00000000E-04
      1.00000000E-04  1.00000000E-04
           0.00000000       0.00000000       0.00000000       0.00000000       0.00000000       0.00000000  1.00000000E-04  5.00000000E-05  1.00000000E-05  1.00000000E-05  1.00000000E-05  1.00000000E-04  1.00000000E-05  3.00000000E-05  3.00000000E-05  3.00000000E-05  3.00000000E-05  3.00000000E-05  1.00000000E-04  1.00000000E-04
      5.00000000E-04  5.00000000E-04  5.00000000E-04  5.00000000E-04       0.00100000  3.00000000E-04       0.00000000       0.00000000       0.00000000       0.00000000       0.00000000       0.00000000       0.00000000       0.00000000  2.00000000E-04       0.00300000       0.00300000  1.00000000E-04  1.00000000E-04  1.00000000E-04
      1.00000000E-04  1.00000000E-04
           0.00000000       0.00000000       0.00000000       0.00000000  2.00000000E-05  1.00000000E-04  8.00000000E-04  8.00000000E-04  8.00000000E-04  8.00000000E-04       0.00160000       0.00160000       0.00160000  1.00000000E-04  5.00000000E-04  5.00000000E-04  5.00000000E-04  5.00000000E-04  5.00000000E-04  5.00000000E-04
      5.00000000E-04  3.00000000E-04  3.00000000E-04  5.00000000E-04       0.00100000       0.00000000       0.00000000       0.00000000       0.00000000       0.00000000       0.00000000       0.00000000       0.00000000       0.00000000  2.00000000E-04       0.00000000       0.00300000  1.00000000E-04  1.00000000E-04  1.00000000E-04
      1.00000000E-04  1.00000000E-04
           0.00000000       0.00000000       0.00000000  1.00000000E-04  1.00000000E-04  8.00000000E-04  8.00000000E-04  8.00000000E-04  8.00000000E-04  8.00000000E-04       0.00160000       0.00160000       0.00160000  5.00000000E-04  5.00000000E-04  5.00000000E-04  5.00000000E-04  5.00000000E-04  5.00000000E-04  5.00000000E-04
      5.00000000E-04  5.00000000E-04  5.00000000E-04  3.00000000E-04       0.00100000       0.00000000       0.00000000       0.00000000       0.00000000       0.00000000       0.00000000       0.00000000       0.00000000       0.00000000  2.00000000E-04  1.00000000E-04  1.00000000E-04  1.00000000E-04  1.00000000E-04  1.00000000E-04
      1.00000000E-04  1.00000000E-04
           0.00000000  2.00000000E-05  1.00000000E-04  1.00000000E-04  1.00000000E-04  8.00000000E-04  8.00000000E-04  8.00000000E-04  8.00000000E-04       0.00100000       0.00120000       0.00160000       0.00160000  5.00000000E-04  5.00000000E-04  5.00000000E-04  5.00000000E-04  5.00000000E-04  5.00000000E-04  5.00000000E-04
      5.00000000E-04  5.00000000E-04  5.00000000E-04       0.00000000       0.00000000       0.00000000       0.00000000       0.00000000       0.00000000       0.00000000       0.00000000       0.00000000       0.00000000       0.00000000  2.00000000E-04  1.00000000E-04  1.00000000E-04  1.00000000E-04  1.00000000E-04  1.00000000E-04
      1.00000000E-04  1.00000000E-04
      2.00000000E-05  2.00000000E-05  6.00000000E-05  2.00000000E-05  2.00000000E-05  2.00000000E-05  2.00000000E-05  2.00000000E-05  2.00000000E-05  3.00000000E-05       0.00220000       0.00160000  5.00000000E-04  5.00000000E-04  5.00000000E-04  5.00000000E-04  5.00000000E-04  3.00000000E-04  3.00000000E-04  4.00000000E-04
      8.00000000E-04  3.00000000E-04  3.00000000E-04       0.00000000       0.00000000       0.00000000       0.00000000       0.00000000       0.00000000       0.00000000       0.00000000       0.00000000  2.00000000E-04  2.00000000E-04       0.00200000       0.00300000  1.00000000E-04  1.00000000E-04  1.00000000E-04  1.00000000E-04
      1.00000000E-04  1.00000000E-04
      6.00000000E-05  2.00000000E-05  2.00000000E-05  2.00000000E-05       0.00000000       0.00000000       0.00000000       0.00000000       0.00000000  3.00000000E-05  3.00000000E-05  1.50000000E-04  8.00000000E-04  5.00000000E-04  5.00000000E-04  3.00000000E-04  3.00000000E-04  2.00000000E-04  2.00000000E-04  2.00000000E-04
      3.00000000E-04       0.00000000       0.00000000       0.00000000       0.00000000       0.00000000       0.00000000       0.00000000  2.00000000E-04  2.00000000E-04  2.00000000E-04  1.00000000E-04       0.00100000       0.00100000       0.00200000       0.00300000  1.00000000E-04  1.00000000E-04  1.00000000E-04  1.00000000E-04
      1.00000000E-04  1.00000000E-04
      2.00000000E-05       0.00000000       0.00000000       0.00000000       0.00000000       0.00000000       0.00000000       0.00000000       0.00000000       0.00000000       0.00000000  1.00000000E-05  3.00000000E-05  5.00000000E-04  3.00000000E-04  5.00000000E-05  5.00000000E-05       0.00000000       0.00000000       0.00000000
           0.00000000       0.00000000       0.00000000       0.00000000       0.00000000       0.00000000       0.00000000       0.00000000       0.00000000  2.00000000E-04  2.00000000E-04  1.00000000E-04       0.00100000       0.00100000       0.00200000       0.00300000       0.00300000  1.00000000E-04  1.00000000E-04  1.00000000E-04
      1.00000000E-04  1.00000000E-04
           0.00000000       0.00000000       0.00000000       0.00000000       0.00000000       0.00000000       0.00000000       0.00000000       0.00000000       0.00000000       0.00000000       0.00000000       0.00000000  3.00000000E-05  3.00000000E-05       0.00000000       0.00000000       0.00000000       0.00000000       0.00000000
           0.00000000       0.00000000       0.00000000       0.00000000       0.00000000       0.00000000       0.00000000       0.00000000  2.00000000E-04  2.00000000E-04  2.00000000E-04       0.00200000       0.00200000       0.00200000       0.00200000       0.00300000       0.00300000  1.00000000E-04  1.00000000E-04  1.00000000E-04
      1.00000000E-04  1.00000000E-04
           0.00000000       0.00000000       0.00000000       0.00000000       0.00000000       0.00000000       0.00000000       0.00000000       0.00000000       0.00000000       0.00000000       0.00000000       0.00000000       0.00000000       0.00000000       0.00000000       0.00000000       0.00000000       0.00000000       0.00000000
           0.00000000       0.00000000       0.00000000       0.00000000       0.00000000       0.00000000       0.00000000       0.00000000  2.00000000E-04  2.00000000E-04       0.00000000       0.00200000       0.00200000       0.00200000       0.00100000       0.00300000       0.00300000  1.00000000E-04  1.00000000E-04  1.00000000E-04
      1.00000000E-04  1.00000000E-04
           0.00000000       0.00000000       0.00000000       0.00000000       0.00000000       0.00000000       0.00000000       0.00000000       0.00000000       0.00000000       0.00000000       0.00000000       0.00000000       0.00000000       0.00000000       0.00000000       0.00000000       0.00000000       0.00000000       0.00000000
           0.00000000       0.00000000       0.00000000       0.00000000       0.00000000       0.00000000       0.00000000       0.00000000  2.00000000E-04  2.00000000E-04  3.00000000E-04       0.00200000       0.00200000       0.00400000       0.00000000       0.00300000       0.00300000  1.00000000E-04  1.00000000E-04  1.00000000E-04
      1.00000000E-04  1.00000000E-04
           0.00000000       0.00000000       0.00000000       0.00000000       0.00000000       0.00000000       0.00000000       0.00000000       0.00000000       0.00000000       0.00000000       0.00000000       0.00000000       0.00000000       0.00000000       0.00000000       0.00000000       0.00000000       0.00000000       0.00000000
           0.00000000       0.00000000       0.00000000       0.00000000       0.00000000       0.00000000       0.00000000       0.00000000       0.00000000  2.00000000E-04  3.00000000E-04  3.00000000E-04       0.00200000       0.00000000       0.00000000       0.00300000       0.00300000  1.00000000E-04  1.00000000E-04  1.00000000E-04
      1.00000000E-04  1.00000000E-04
           0.00000000       0.00000000       0.00000000       0.00000000       0.00000000       0.00000000       0.00000000       0.00000000       0.00000000       0.00000000       0.00000000       0.00000000       0.00000000       0.00000000       0.00000000       0.00000000       0.00000000       0.00000000       0.00000000       0.00000000
           0.00000000       0.00000000       0.00000000       0.00000000       0.00000000       0.00000000       0.00000000       0.00000000       0.00000000       0.00000000  3.00000000E-04  3.00000000E-04       0.00000000  3.00000000E-04  3.00000000E-04       0.00300000       0.00300000       0.00300000  1.00000000E-04  1.00000000E-04
      1.00000000E-04  1.00000000E-04
           0.00000000       0.00000000       0.00000000       0.00000000       0.00000000       0.00000000       0.00000000       0.00000000       0.00000000       0.00000000       0.00000000       0.00000000       0.00000000       0.00000000       0.00000000       0.00000000       0.00000000       0.00000000       0.00000000       0.00000000
           0.00000000       0.00000000       0.00000000       0.00000000       0.00000000       0.00000000       0.00000000       0.00000000       0.00000000       0.00000000  3.00000000E-04  3.00000000E-04  3.00000000E-04  3.00000000E-04  3.00000000E-04       0.00300000       0.00300000       0.00300000  1.00000000E-04  1.00000000E-04
      1.00000000E-04  1.00000000E-04
           0.00000000       0.00000000       0.00000000       0.00000000       0.00000000       0.00000000       0.00000000       0.00000000       0.00000000       0.00000000       0.00000000       0.00000000       0.00000000       0.00000000       0.00000000       0.00000000       0.00000000       0.00000000       0.00000000       0.00000000
           0.00000000       0.00000000       0.00000000       0.00000000       0.00000000       0.00000000       0.00000000       0.00000000       0.00000000  3.00000000E-04  3.00000000E-04  3.00000000E-04  3.00000000E-04  1.00000000E-04  1.00000000E-04       0.00300000       0.00300000       0.00300000  1.00000000E-04  1.00000000E-04
      1.00000000E-04  1.00000000E-04
           0.00000000       0.00000000       0.00000000       0.00000000       0.00000000       0.00000000       0.00000000       0.00000000       0.00000000       0.00000000       0.00000000       0.00000000       0.00000000       0.00000000       0.00000000       0.00000000       0.00000000       0.00000000       0.00000000       0.00000000
           0.00000000       0.00000000       0.00000000       0.00000000       0.00000000       0.00000000       0.00000000  2.00000000E-04  2.00000000E-04  3.00000000E-04  1.00000000E-04  1.00000000E-04  1.00000000E-04  1.00000000E-04  2.00000000E-04       0.00300000       0.00300000       0.00300000  1.00000000E-04  1.00000000E-04
      1.00000000E-04  1.00000000E-04
           0.00000000       0.00000000       0.00000000       0.00000000       0.00000000       0.00000000       0.00000000       0.00000000       0.00000000       0.00000000       0.00000000       0.00000000       0.00000000       0.00000000       0.00000000       0.00000000       0.00000000       0.00000000       0.00000000       0.00000000
           0.00000000       0.00000000       0.00000000       0.00000000       0.00000000       0.00000000  2.00000000E-04  1.00000000E-04  5.00000000E-05  5.00000000E-05  1.00000000E-04  5.00000000E-05  5.00000000E-05  1.00000000E-04  2.00000000E-04       0.00300000       0.00300000       0.00300000  1.00000000E-04  1.00000000E-04
      1.00000000E-04  1.00000000E-04
           0.00000000       0.00000000       0.00000000       0.00000000       0.00000000       0.00000000       0.00000000       0.00000000       0.00000000       0.00000000       0.00000000       0.00000000       0.00000000       0.00000000       0.00000000       0.00000000       0.00000000       0.00000000       0.00000000       0.00000000
           0.00000000       0.00000000       0.00000000       0.00000000       0.00000000  1.00000000E-04  2.00000000E-04  1.00000000E-04  5.00000000E-05  5.00000000E-05  5.00000000E-05  5.00000000E-05  5.00000000E-05  1.00000000E-04  2.00000000E-04       0.00300000       0.00300000       0.00300000  1.00000000E-04  1.00000000E-04
      1.00000000E-04  1.00000000E-04
           0.00000000       0.00000000       0.00000000       0.00000000       0.00000000       0.00000000       0.00000000       0.00000000       0.00000000       0.00000000       0.00000000       0.00000000       0.00000000       0.00000000       0.00000000       0.00000000       0.00000000       0.00000000       0.00000000       0.00000000
           0.00000000       0.00000000       0.00000000       0.00000000  1.00000000E-04  1.00000000E-04  1.00000000E-05  1.00000000E-05  5.00000000E-05  5.00000000E-05  5.00000000E-05  5.00000000E-05  5.00000000E-05  1.00000000E-04  2.00000000E-04       0.00000000       0.00300000       0.00300000  1.00000000E-04  1.00000000E-04
      1.00000000E-04  1.00000000E-04
           0.00000000       0.00000000       0.00000000       0.00000000       0.00000000       0.00000000       0.00000000       0.00000000       0.00000000       0.00000000       0.00000000       0.00000000       0.00000000       0.00000000       0.00000000       0.00000000       0.00000000       0.00000000       0.00000000       0.00000000
           0.00000000       0.00000000       0.00000000       0.00000000  1.00000000E-04  1.00000000E-04  1.00000000E-05  1.00000000E-05  5.00000000E-05  5.00000000E-05  5.00000000E-05  5.00000000E-05  5.00000000E-05  1.00000000E-04  1.00000000E-04       0.00000000       0.00000000       0.00000000       0.00000000  1.00000000E-04
      1.00000000E-04  1.00000000E-04
           0.00000000       0.00000000       0.00000000       0.00000000       0.00000000       0.00000000       0.00000000       0.00000000       0.00000000       0.00000000       0.00000000       0.00000000       0.00000000       0.00000000       0.00000000       0.00000000       0.00000000       0.00000000       0.00000000       0.00000000
           0.00000000       0.00000000       0.00000000       0.00000000       0.00000000  1.00000000E-04  1.00000000E-04  1.00000000E-04  5.00000000E-05  5.00000000E-05  5.00000000E-05  5.00000000E-05  1.00000000E-05       0.00000000       0.00000000       0.00000000       0.00000000       0.00000000       0.00000000       0.00000000
           0.00000000       0.00000000
           0.00000000       0.00000000       0.00000000       0.00000000       0.00000000       0.00000000       0.00000000       0.00000000       0.00000000       0.00000000       0.00000000       0.00000000       0.00000000       0.00000000       0.00000000       0.00000000       0.00000000       0.00000000       0.00000000       0.00000000
           0.00000000       0.00000000       0.00000000       0.00000000       0.00000000       0.00000000       0.00000000       0.00000000       0.00000000       0.00000000       0.00000000       0.00000000       0.00000000       0.00000000       0.00000000       0.00000000       0.00000000       0.00000000       0.00000000       0.00000000
           0.00000000       0.00000000
    INTERNAL  FACTOR  1.0
      2.50000000E-09  2.50000000E-09  2.50000000E-09  2.50000000E-09  2.50000000E-09  2.50000000E-09  2.50000000E-09  2.50000000E-09  2.50000000E-09  2.50000000E-09  2.50000000E-09  2.50000000E-09  2.50000000E-09  2.50000000E-09  2.50000000E-09  2.50000000E-09  2.50000000E-09  2.50000000E-09  2.50000000E-09  2.50000000E-09
      2.50000000E-09  2.50000000E-09  2.50000000E-09  2.50000000E-09  2.50000000E-09  2.50000000E-09  2.50000000E-09  2.50000000E-09  2.50000000E-09  2.50000000E-09  2.50000000E-09  2.50000000E-09  2.50000000E-09  2.50000000E-09  2.50000000E-09  2.50000000E-09  2.50000000E-09  2.50000000E-09  2.50000000E-09  2.50000000E-09
      2.50000000E-09  2.50000000E-09
      2.50000000E-09  2.50000000E-09  2.50000000E-09  2.50000000E-09  2.50000000E-09  2.50000000E-09  2.50000000E-09  2.50000000E-09  2.50000000E-09  2.50000000E-09  2.50000000E-09  2.50000000E-09  2.50000000E-09  2.50000000E-09  2.50000000E-09  2.50000000E-09  2.50000000E-09  2.50000000E-09  2.50000000E-09  2.50000000E-09
      2.50000000E-09  2.50000000E-09  2.50000000E-09  2.50000000E-09  2.50000000E-09  2.50000000E-09  2.50000000E-09  2.50000000E-09  2.50000000E-09  2.50000000E-09  2.50000000E-09  2.50000000E-09  2.50000000E-09  2.50000000E-09  2.50000000E-09  2.50000000E-09  2.50000000E-09  2.50000000E-09  2.50000000E-09  2.50000000E-09
      2.50000000E-09  2.50000000E-09
      2.50000000E-09  2.50000000E-09  2.50000000E-09  2.50000000E-09  2.50000000E-09  2.50000000E-09  2.50000000E-09  2.50000000E-09  2.50000000E-09  2.50000000E-09  2.50000000E-09  2.50000000E-09  2.50000000E-09  2.50000000E-09  2.50000000E-09  2.50000000E-09  2.50000000E-09  2.50000000E-09  2.50000000E-09  2.50000000E-09
      2.50000000E-09  2.50000000E-09  2.50000000E-09  2.50000000E-09  2.50000000E-09  2.50000000E-09  2.50000000E-09  2.50000000E-09  2.50000000E-09  2.50000000E-09  2.50000000E-09  2.50000000E-09  2.50000000E-09  2.50000000E-09  2.50000000E-09  2.50000000E-09  2.50000000E-09  2.50000000E-09  2.50000000E-09  2.50000000E-09
      2.50000000E-09  2.50000000E-09
      2.50000000E-09  2.50000000E-09  2.50000000E-09  2.50000000E-09  2.50000000E-09  2.50000000E-09  2.50000000E-09  2.50000000E-09  2.50000000E-09  2.50000000E-09  2.50000000E-09  2.50000000E-09  2.50000000E-09  2.50000000E-09  2.50000000E-09  2.50000000E-09  2.50000000E-09  2.50000000E-09  2.50000000E-09  2.50000000E-09