BEGIN options
  READASARRAYS
END options

BEGIN period  1
  recharge
    INTERNAL  FACTOR  1.0
         0.00000000       0.00000000       0.00000000       0.00000000       0.00000000       0.00000000       0.00000000       0.00000000       0.00000000       0.00000000       0.00000000       0.00000000       0.00000000       0.00000000       0.00000000       0.00000000       0.00000000       0.00000000       0.00000000       0.00000000
         0.00000000       0.00000000       0.00000000       0.00000000       0.00000000       0.00000000       0.00000000       0.00000000  5.70776256E-09  2.85388128E-09  2.85388128E-09  2.14041096E-09  2.14041096E-09       0.00000000       0.00000000       0.00000000       0.00000000       0.00000000       0.00000000       0.00000000
         0.00000000       0.00000000
         0.00000000       0.00000000       0.00000000       0.00000000       0.00000000       0.00000000       0.00000000       0.00000000       0.00000000       0.00000000       0.00000000       0.00000000       0.00000000       0.00000000       0.00000000       0.00000000       0.00000000       0.00000000       0.00000000       0.00000000
         0.00000000       0.00000000       0.00000000       0.00000000       0.00000000       0.00000000       0.00000000  5.70776256E-09  2.85388128E-09  2.85388128E-09  2.85388128E-09  2.14041096E-09  2.14041096E-09       0.00000000       0.00000000       0.00000000       0.00000000       0.00000000       0.00000000       0.00000000
         0.00000000       0.00000000
         0.00000000       0.00000000       0.00000000       0.00000000       0.00000000       0.00000000       0.00000000       0.00000000       0.00000000       0.00000000       0.00000000       0.00000000       0.00000000       0.00000000       0.00000000       0.00000000       0.00000000       0.00000000       0.00000000       0.00000000
         0.00000000       0.00000000       0.00000000       0.00000000       0.00000000       0.00000000  5.70776256E-09  2.85388128E-09  2.94901065E-09  2.94901065E-09  2.85388128E-09  2.14041096E-09  2.85388128E-09       0.00000000       0.00000000       0.00000000       0.00000000       0.00000000       0.00000000       0.00000000
         0.00000000       0.00000000
         0.00000000       0.00000000       0.00000000       0.00000000       0.00000000       0.00000000       0.00000000       0.00000000       0.00000000       0.00000000       0.00000000       0.00000000       0.00000000       0.00000000       0.00000000       0.00000000       0.00000000       0.00000000       0.00000000       0.00000000
         0.00000000       0.00000000  5.70776256E-09  5.70776256E-09  5.70776256E-09  5.70776256E-09  5.70776256E-09  2.85388128E-09  2.94901065E-09  2.94901065E-09  -6.50050736E-10  2.85388128E-09  2.85388128E-09  2.85388128E-09  2.85388128E-09  2.85388128E-09       0.00000000       0.00000000       0.00000000       0.00000000
         0.00000000       0.00000000
         0.00000000       0.00000000       0.00000000       0.00000000       0.00000000       0.00000000       0.00000000       0.00000000       0.00000000       0.00000000       0.00000000       0.00000000       0.00000000       0.00000000       0.00000000       0.00000000       0.00000000       0.00000000       0.00000000       0.00000000
         0.00000000  5.70776256E-09  5.70776256E-09  5.70776256E-09  5.70776256E-09  5.70776256E-09  5.70776256E-09  5.70776256E-09  5.80289193E-09  2.20383054E-09  2.20383054E-09  2.85388128E-09  2.85388128E-09  2.85388128E-09  2.85388128E-09  2.85388128E-09       0.00000000       0.00000000       0.00000000       0.00000000
         0.00000000       0.00000000
         0.00000000       0.00000000       0.00000000       0.00000000       0.00000000       0.00000000       0.00000000       0.00000000       0.00000000       0.00000000       0.00000000       0.00000000       0.00000000       0.00000000       0.00000000       0.00000000       0.00000000       0.00000000       0.00000000       0.00000000
    5.70776256E-09  5.70776256E-09  5.70776256E-09  5.70776256E-09  5.70776256E-09  5.70776256E-09  5.70776256E-09  5.70776256E-09  5.70776256E-09  5.70776256E-09  2.20383054E-09  -6.50050736E-10  2.85388128E-09  2.85388128E-09  2.85388128E-09  2.85388128E-09       0.00000000       0.00000000       0.00000000       0.00000000
         0.00000000       0.00000000
         0.00000000       0.00000000       0.00000000       0.00000000       0.00000000       0.00000000       0.00000000       0.00000000       0.00000000       0.00000000       0.00000000       0.00000000       0.00000000       0.00000000       0.00000000       0.00000000       0.00000000       0.00000000       0.00000000       0.00000000
    5.70776256E-09  5.70776256E-09  6.08828006E-09  6.08828006E-09  6.08828006E-09  5.70776256E-09  5.70776256E-09  5.70776256E-09  5.70776256E-09  5.70776256E-09  2.85388128E-09  -6.50050736E-10  2.85388128E-09  2.85388128E-09  2.85388128E-09  2.85388128E-09  2.85388128E-09  2.85388128E-09       0.00000000       0.00000000
         0.00000000       0.00000000
         0.00000000       0.00000000       0.00000000       0.00000000       0.00000000       0.00000000       0.00000000       0.00000000       0.00000000       0.00000000       0.00000000       0.00000000       0.00000000       0.00000000       0.00000000       0.00000000       0.00000000       0.00000000       0.00000000       0.00000000
    6.08828006E-09  6.08828006E-09  6.08828006E-09  2.52092846E-09  2.52092846E-09  5.70776256E-09  5.70776256E-09  5.70776256E-09  5.70776256E-09  5.70776256E-09  2.85388128E-09  -6.50050736E-10  -6.50050736E-10  -6.50050736E-10  2.85388128E-09  2.85388128E-09  2.85388128E-09  2.85388128E-09       0.00000000       0.00000000
         0.00000000       0.00000000
         0.00000000       0.00000000       0.00000000       0.00000000       0.00000000       0.00000000       0.00000000       0.00000000       0.00000000       0.00000000       0.00000000       0.00000000       0.00000000       0.00000000       0.00000000       0.00000000       0.00000000       0.00000000       0.00000000  2.14041096E-09
    2.52092846E-09  2.52092846E-09  2.52092846E-09  2.52092846E-09  6.08828006E-09  5.70776256E-09  5.70776256E-09  5.70776256E-09  5.70776256E-09  5.70776256E-09  2.85388128E-09  -6.50050736E-10  -6.50050736E-10  -6.50050736E-10  -6.50050736E-10  -6.50050736E-10  2.85388128E-09  2.85388128E-09       0.00000000       0.00000000
         0.00000000       0.00000000
         0.00000000       0.00000000       0.00000000       0.00000000       0.00000000       0.00000000       0.00000000       0.00000000       0.00000000       0.00000000       0.00000000       0.00000000       0.00000000       0.00000000       0.00000000       0.00000000       0.00000000       0.00000000       0.00000000       0.00000000
    6.08828006E-09  6.08828006E-09  6.08828006E-09  6.08828006E-09  6.08828006E-09  2.75875190E-09  -1.12569762E-09  6.08828006E-09  6.08828006E-09  5.70776256E-09  -6.50050736E-10  -6.50050736E-10  -6.50050736E-10  -6.50050736E-10  -6.50050736E-10  -6.50050736E-10  -6.50050736E-10  2.85388128E-09       0.00000000       0.00000000
         0.00000000       0.00000000
         0.00000000       0.00000000       0.00000000       0.00000000       0.00000000       0.00000000       0.00000000       0.00000000       0.00000000       0.00000000       0.00000000       0.00000000       0.00000000       0.00000000       0.00000000       0.00000000       0.00000000       0.00000000       0.00000000  2.14041096E-09
    5.70776256E-09  5.70776256E-09  5.70776256E-09  2.52092846E-09  2.75875190E-09  2.75875190E-09  -1.12569762E-09  2.20383054E-09  2.20383054E-09  6.08828006E-09  -6.50050736E-10  -6.50050736E-10  -6.50050736E-10  -6.50050736E-10  -6.50050736E-10  -6.50050736E-10  -6.50050736E-10  2.85388128E-09       0.00000000       0.00000000
         0.00000000       0.00000000
         0.00000000       0.00000000       0.00000000       0.00000000       0.00000000       0.00000000       0.00000000       0.00000000       0.00000000       0.00000000       0.00000000       0.00000000       0.00000000       0.00000000       0.00000000       0.00000000       0.00000000       0.00000000  2.14041096E-09  2.14041096E-09
    2.14041096E-09  2.14041096E-09  2.37823440E-09  5.70776256E-09  5.70776256E-09  5.70776256E-09  2.37823440E-09  2.20383054E-09  2.20383054E-09  3.01243024E-10  3.80517504E-09  3.01243024E-10  3.01243024E-10  3.01243024E-10  -6.50050736E-10  -6.50050736E-10  -6.50050736E-10  2.85388128E-09       0.00000000       0.00000000
         0.00000000       0.00000000
         0.00000000       0.00000000       0.00000000       0.00000000       0.00000000       0.00000000       0.00000000       0.00000000       0.00000000       0.00000000       0.00000000       0.00000000       0.00000000       0.00000000       0.00000000       0.00000000       0.00000000  2.14041096E-09  2.14041096E-09  3.80517504E-09
    3.80517504E-09  3.80517504E-09  3.80517504E-09  3.80517504E-09  3.80517504E-09  3.80517504E-09  3.90030441E-09  3.80517504E-09  3.01243024E-10  3.01243024E-10  3.01243024E-10  3.01243024E-10  3.01243024E-10  3.01243024E-10  -6.50050736E-10  -6.50050736E-10  -6.50050736E-10  2.85388128E-09       0.00000000       0.00000000
         0.00000000       0.00000000
         0.00000000       0.00000000       0.00000000       0.00000000       0.00000000       0.00000000       0.00000000       0.00000000       0.00000000       0.00000000       0.00000000       0.00000000       0.00000000       0.00000000       0.00000000       0.00000000       0.00000000  2.14041096E-09  2.14041096E-09  3.80517504E-09
    3.80517504E-09  3.80517504E-09  3.80517504E-09  3.80517504E-09  3.80517504E-09  3.80517504E-09  3.90030441E-09  3.90030441E-09  3.90030441E-09  3.01243024E-10  3.01243024E-10  3.01243024E-10  3.01243024E-10  3.01243024E-10  -6.50050736E-10  -6.50050736E-10  -6.50050736E-10  2.85388128E-09       0.00000000       0.00000000
         0.00000000       0.00000000
         0.00000000       0.00000000       0.00000000       0.00000000       0.00000000       0.00000000       0.00000000       0.00000000       0.00000000       0.00000000       0.00000000       0.00000000       0.00000000       0.00000000  2.14041096E-09  2.14041096E-09  2.14041096E-09  2.14041096E-09  2.14041096E-09  3.80517504E-09
    3.80517504E-09  3.80517504E-09  3.80517504E-09  3.80517504E-09  3.80517504E-09  3.80517504E-09  3.90030441E-09  3.90030441E-09  3.90030441E-09  3.01243024E-10  3.01243024E-10  -6.50050736E-10  -6.50050736E-10  -6.50050736E-10  -6.50050736E-10  -6.50050736E-10  -6.50050736E-10  2.85388128E-09       0.00000000       0.00000000
         0.00000000       0.00000000
         0.00000000       0.00000000       0.00000000       0.00000000       0.00000000       0.00000000       0.00000000       0.00000000       0.00000000       0.00000000       0.00000000  5.70776256E-09  5.70776256E-09  5.70776256E-09  2.14041096E-09  2.14041096E-09  2.14041096E-09  2.14041096E-09  2.14041096E-09  3.80517504E-09
    3.80517504E-09  3.80517504E-09  3.80517504E-09  3.80517504E-09  3.90030441E-09  3.80517504E-09  3.90030441E-09  3.90030441E-09  3.90030441E-09  3.90030441E-09  3.01243024E-10  -6.50050736E-10  -6.50050736E-10  -6.50050736E-10  -6.50050736E-10  -6.50050736E-10  -6.50050736E-10  2.85388128E-09       0.00000000       0.00000000
         0.00000000       0.00000000
         0.00000000       0.00000000       0.00000000       0.00000000       0.00000000       0.00000000       0.00000000       0.00000000  2.14041096E-09  2.14041096E-09  2.14041096E-09  2.14041096E-09  2.14041096E-09  2.14041096E-09  2.14041096E-09  2.14041096E-09  2.14041096E-09  2.14041096E-09  2.23554033E-09  3.90030441E-09
    3.90030441E-09  3.90030441E-09  3.90030441E-09  3.90030441E-09  3.90030441E-09  3.80517504E-09  3.90030441E-09  3.90030441E-09  3.90030441E-09  3.90030441E-09  3.80517504E-09  2.85388128E-09  2.85388128E-09  2.85388128E-09  2.85388128E-09  2.85388128E-09  2.85388128E-09  2.85388128E-09       0.00000000       0.00000000
         0.00000000       0.00000000
         0.00000000       0.00000000       0.00000000       0.00000000       0.00000000       0.00000000  5.80289193E-09  5.80289193E-09  5.80289193E-09  5.80289193E-09  5.80289193E-09  5.80289193E-09  5.80289193E-09  5.80289193E-09  2.23554033E-09  2.23554033E-09  2.23554033E-09  2.23554033E-09  2.23554033E-09  3.80517504E-09
    3.90030441E-09  3.90030441E-09  3.90030441E-09  3.80517504E-09  3.80517504E-09  3.80517504E-09  3.80517504E-09  3.80517504E-09  3.80517504E-09  1.18911720E-09  1.18911720E-09  1.18911720E-09  1.18911720E-09  1.18911720E-09  1.18911720E-09  1.18911720E-09  1.18911720E-09  1.18911720E-09       0.00000000       0.00000000
         0.00000000       0.00000000
         0.00000000       0.00000000       0.00000000       0.00000000  5.80289193E-09  5.80289193E-09  5.80289193E-09  5.80289193E-09  5.80289193E-09  5.80289193E-09  1.90258752E-08  1.90258752E-08  1.90258752E-08  5.80289193E-09  5.80289193E-09  5.80289193E-09  3.90030441E-09  3.90030441E-09  3.80517504E-09  3.80517504E-09
    3.90030441E-09  3.90030441E-09  3.90030441E-09  3.90030441E-09  3.80517504E-09  3.80517504E-09  3.80517504E-09  1.18911720E-09  1.18911720E-09  1.18911720E-09  1.18911720E-09  1.18911720E-09  1.18911720E-09  1.18911720E-09  1.18911720E-09  2.14041096E-09  5.70776256E-09  5.70776256E-09       0.00000000       0.00000000
         0.00000000       0.00000000
         0.00000000       0.00000000       0.00000000  5.70776256E-09  5.80289193E-09  5.80289193E-09  5.80289193E-09  5.80289193E-09  5.80289193E-09  5.80289193E-09  1.90258752E-08  1.90258752E-08  1.90258752E-08  5.80289193E-09  5.80289193E-09  5.80289193E-09  3.90030441E-09  3.80517504E-09  3.90030441E-09  3.90030441E-09
    3.90030441E-09  3.90030441E-09  3.90030441E-09  3.90030441E-09  3.80517504E-09  3.80517504E-09  3.80517504E-09  1.18911720E-09  1.18911720E-09  1.18911720E-09  1.18911720E-09  1.18911720E-09  1.18911720E-09  1.18911720E-09  1.18911720E-09  5.70776256E-09  5.70776256E-09  5.70776256E-09       0.00000000       0.00000000
         0.00000000       0.00000000
         0.00000000  5.70776256E-09  5.70776256E-09  5.80289193E-09  5.80289193E-09  5.80289193E-09  5.80289193E-09  5.80289193E-09  5.80289193E-09  5.80289193E-09  1.90258752E-08  1.90258752E-08  1.90258752E-08  5.80289193E-09  5.80289193E-09  5.80289193E-09  3.90030441E-09  3.90030441E-09  3.90030441E-09  3.90030441E-09
    3.80517504E-09  3.90030441E-09  3.90030441E-09  3.80517504E-09  3.80517504E-09  3.80517504E-09  3.80517504E-09  1.18911720E-09  1.18911720E-09  1.18911720E-09  1.18911720E-09  1.18911720E-09  1.18911720E-09  1.18911720E-09  1.18911720E-09  5.70776256E-09  5.70776256E-09  5.70776256E-09       0.00000000       0.00000000
         0.00000000       0.00000000
    5.70776256E-09  5.80289193E-09  5.80289193E-09  5.80289193E-09  5.80289193E-09  5.80289193E-09  5.80289193E-09  5.80289193E-09  5.80289193E-09  5.80289193E-09  1.90258752E-08  1.90258752E-08  1.90258752E-08  5.80289193E-09  5.80289193E-09  5.80289193E-09  3.90030441E-09  3.90030441E-09  3.90030441E-09  3.90030441E-09
    3.80517504E-09  3.90030441E-09  3.80517504E-09  3.80517504E-09  3.80517504E-09  3.80517504E-09  3.80517504E-09  1.18911720E-09  5.70776256E-09  5.70776256E-09  5.70776256E-09  5.70776256E-09  5.70776256E-09  5.80289193E-09  5.80289193E-09  5.70776256E-09  5.70776256E-09  5.70776256E-09       0.00000000       0.00000000
         0.00000000       0.00000000
    5.80289193E-09  5.80289193E-09  5.80289193E-09  5.80289193E-09       0.00000000       0.00000000       0.00000000  5.70776256E-09  5.70776256E-09  5.80289193E-09  5.80289193E-09  5.80289193E-09  5.80289193E-09  5.80289193E-09  5.80289193E-09  5.80289193E-09  3.90030441E-09  3.90030441E-09  3.90030441E-09  3.90030441E-09
    3.80517504E-09  3.80517504E-09  3.80517504E-09  3.80517504E-09  3.80517504E-09  3.80517504E-09  3.80517504E-09  1.18911720E-09  5.70776256E-09  5.70776256E-09  5.70776256E-09  2.20383054E-09  2.20383054E-09  5.80289193E-09  5.80289193E-09  5.70776256E-09  5.70776256E-09  5.70776256E-09       0.00000000       0.00000000
         0.00000000       0.00000000
    5.70776256E-09       0.00000000       0.00000000       0.00000000       0.00000000       0.00000000       0.00000000       0.00000000       0.00000000  5.70776256E-09  5.70776256E-09  5.80289193E-09  5.80289193E-09  5.80289193E-09  5.80289193E-09  5.80289193E-09  3.90030441E-09  3.80517504E-09  3.80517504E-09  3.80517504E-09
    3.80517504E-09  3.80517504E-09  3.80517504E-09  3.80517504E-09  3.80517504E-09  3.80517504E-09  3.80517504E-09  1.18911720E-09  5.70776256E-09  2.14041096E-09  2.20383054E-09  2.20383054E-09  2.20383054E-09  2.20383054E-09  5.80289193E-09  5.70776256E-09  5.70776256E-09  5.70776256E-09       0.00000000       0.00000000
         0.00000000       0.00000000
         0.00000000       0.00000000       0.00000000       0.00000000       0.00000000       0.00000000       0.00000000       0.00000000       0.00000000       0.00000000  5.70776256E-09  5.70776256E-09  5.70776256E-09  5.80289193E-09  2.23554033E-09  2.14041096E-09  2.14041096E-09  2.14041096E-09  2.14041096E-09  2.14041096E-09
    2.14041096E-09  2.14041096E-09  2.14041096E-09  2.14041096E-09  1.18911720E-09  1.18911720E-09  1.18911720E-09  1.18911720E-09  5.70776256E-09  5.70776256E-09  5.70776256E-09  2.20383054E-09  2.20383054E-09  2.20383054E-09  5.80289193E-09  5.80289193E-09  5.70776256E-09  5.70776256E-09       0.00000000       0.00000000
         0.00000000       0.00000000
         0.00000000       0.00000000       0.00000000       0.00000000       0.00000000       0.00000000       0.00000000       0.00000000       0.00000000       0.00000000       0.00000000  5.70776256E-09  5.70776256E-09  5.70776256E-09  2.14041096E-09  2.14041096E-09  2.14041096E-09  2.14041096E-09  2.14041096E-09  2.14041096E-09
    2.14041096E-09  2.14041096E-09  2.14041096E-09  2.14041096E-09  1.18911720E-09  1.18911720E-09  1.18911720E-09  1.18911720E-09  1.18911720E-09  5.70776256E-09  2.14041096E-09  5.70776256E-09  5.70776256E-09  2.20383054E-09  5.80289193E-09  5.80289193E-09  5.70776256E-09  5.70776256E-09       0.00000000       0.00000000
         0.00000000       0.00000000
         0.00000000       0.00000000       0.00000000       0.00000000       0.00000000       0.00000000       0.00000000       0.00000000       0.00000000       0.00000000       0.00000000       0.00000000  5.70776256E-09  5.70776256E-09  2.14041096E-09  2.14041096E-09  2.14041096E-09  2.14041096E-09  2.14041096E-09  2.14041096E-09
    2.14041096E-09  2.14041096E-09  2.14041096E-09  2.14041096E-09  1.18911720E-09  1.18911720E-09  1.18911720E-09  1.18911720E-09  1.18911720E-09  5.70776256E-09  5.70776256E-09  5.70776256E-09  5.80289193E-09  5.80289193E-09  2.14041096E-09  5.80289193E-09  5.80289193E-09  5.70776256E-09       0.00000000       0.00000000
         0.00000000       0.00000000
         0.00000000       0.00000000       0.00000000       0.00000000       0.00000000       0.00000000       0.00000000       0.00000000       0.00000000       0.00000000       0.00000000       0.00000000       0.00000000  5.70776256E-09  2.14041096E-09  2.14041096E-09  2.14041096E-09  2.14041096E-09  2.14041096E-09  2.14041096E-09
    2.14041096E-09  2.14041096E-09  2.14041096E-09  2.14041096E-09  1.18911720E-09  1.18911720E-09  1.18911720E-09  1.18911720E-09  1.18911720E-09  5.70776256E-09  5.70776256E-09  5.80289193E-09  5.80289193E-09  2.14041096E-09  2.14041096E-09  5.70776256E-09  5.70776256E-09  5.70776256E-09       0.00000000       0.00000000
         0.00000000       0.00000000
         0.00000000       0.00000000       0.00000000       0.00000000       0.00000000       0.00000000       0.00000000       0.00000000       0.00000000       0.00000000       0.00000000       0.00000000       0.00000000       0.00000000  2.14041096E-09  2.14041096E-09  2.14041096E-09  2.14041096E-09  2.14041096E-09  2.14041096E-09
    2.14041096E-09  2.14041096E-09  2.14041096E-09  2.14041096E-09  1.18911720E-09  1.18911720E-09  1.18911720E-09  1.18911720E-09  1.18911720E-09  2.14041096E-09  5.70776256E-09  5.70776256E-09  2.14041096E-09  5.70776256E-09  -6.50050736E-10  -6.50050736E-10  -6.50050736E-10  2.20383054E-09  2.20383054E-09       0.00000000
         0.00000000       0.00000000
         0.00000000       0.00000000       0.00000000       0.00000000       0.00000000       0.00000000       0.00000000       0.00000000       0.00000000       0.00000000       0.00000000       0.00000000       0.00000000       0.00000000  2.14041096E-09  2.14041096E-09  2.14041096E-09  2.14041096E-09  2.14041096E-09  2.14041096E-09
    2.14041096E-09  2.14041096E-09  2.14041096E-09  2.14041096E-09  1.18911720E-09  1.18911720E-09  1.18911720E-09  1.18911720E-09  1.18911720E-09  2.14041096E-09  5.70776256E-09  5.80289193E-09  5.80289193E-09  5.80289193E-09  -6.50050736E-10  -6.50050736E-10  -6.50050736E-10  2.20383054E-09  2.20383054E-09       0.00000000
         0.00000000       0.00000000
         0.00000000       0.00000000       0.00000000       0.00000000       0.00000000       0.00000000       0.00000000       0.00000000       0.00000000       0.00000000       0.00000000       0.00000000       0.00000000       0.00000000  2.14041096E-09  2.14041096E-09  2.14041096E-09  2.14041096E-09  2.14041096E-09  2.14041096E-09
    2.14041096E-09  2.14041096E-09  2.14041096E-09  2.14041096E-09  1.18911720E-09  1.18911720E-09  1.18911720E-09  1.18911720E-09  1.18911720E-09  5.70776256E-09  5.80289193E-09  5.80289193E-09  5.80289193E-09  5.80289193E-09  2.85388128E-09  2.85388128E-09  2.94901065E-09  5.80289193E-09  5.70776256E-09       0.00000000
         0.00000000       0.00000000
         0.00000000       0.00000000       0.00000000       0.00000000       0.00000000       0.00000000       0.00000000       0.00000000       0.00000000       0.00000000       0.00000000       0.00000000       0.00000000       0.00000000  2.14041096E-09  2.14041096E-09  2.14041096E-09  2.14041096E-09  2.14041096E-09  2.14041096E-09
    2.14041096E-09  2.14041096E-09  2.14041096E-09  2.14041096E-09  1.18911720E-09  1.18911720E-09  1.18911720E-09  1.18911720E-09  1.18911720E-09  5.80289193E-09  5.80289193E-09  5.80289193E-09  5.80289193E-09  5.80289193E-09  2.85388128E-09  2.85388128E-09  2.85388128E-09  5.70776256E-09  5.70776256E-09       0.00000000
         0.00000000       0.00000000
         0.00000000       0.00000000       0.00000000       0.00000000       0.00000000       0.00000000       0.00000000       0.00000000       0.00000000       0.00000000       0.00000000       0.00000000       0.00000000       0.00000000  2.14041096E-09  2.14041096E-09  2.14041096E-09  2.14041096E-09  2.14041096E-09  2.14041096E-09
    2.14041096E-09  2.14041096E-09  2.14041096E-09  2.14041096E-09  1.18911720E-09  1.18911720E-09  1.18911720E-09  1.28424658E-09  1.28424658E-09  5.80289193E-09  5.80289193E-09  5.80289193E-09  5.80289193E-09  5.70776256E-09  2.85388128E-09  2.85388128E-09  2.85388128E-09  5.70776256E-09  5.70776256E-09       0.00000000
         0.00000000       0.00000000
         0.00000000       0.00000000       0.00000000       0.00000000       0.00000000       0.00000000       0.00000000       0.00000000       0.00000000       0.00000000       0.00000000       0.00000000       0.00000000       0.00000000       0.00000000       0.00000000       0.00000000       0.00000000       0.00000000       0.00000000
         0.00000000       0.00000000       0.00000000       0.00000000  1.18911720E-09  1.18911720E-09  1.28424658E-09  1.18911720E-09  1.18911720E-09  5.70776256E-09  5.70776256E-09  5.70776256E-09  5.70776256E-09  5.80289193E-09  2.94901065E-09  2.94901065E-09  2.85388128E-09  5.70776256E-09  5.70776256E-09       0.00000000
         0.00000000       0.00000000
         0.00000000       0.00000000       0.00000000       0.00000000       0.00000000       0.00000000       0.00000000       0.00000000       0.00000000       0.00000000       0.00000000       0.00000000       0.00000000       0.00000000       0.00000000       0.00000000       0.00000000       0.00000000       0.00000000       0.00000000
         0.00000000       0.00000000       0.00000000       0.00000000  1.28424658E-09  1.28424658E-09  1.18911720E-09  1.18911720E-09  1.18911720E-09  5.70776256E-09  5.70776256E-09  5.70776256E-09  5.70776256E-09  5.70776256E-09  5.70776256E-09  1.18911720E-09  5.70776256E-09  2.85388128E-09  2.85388128E-09       0.00000000
         0.00000000       0.00000000
         0.00000000       0.00000000       0.00000000       0.00000000       0.00000000       0.00000000       0.00000000       0.00000000       0.00000000       0.00000000       0.00000000       0.00000000       0.00000000       0.00000000       0.00000000       0.00000000       0.00000000       0.00000000       0.00000000       0.00000000
         0.00000000       0.00000000       0.00000000       0.00000000  1.28424658E-09  1.18911720E-09  5.70776256E-09  5.70776256E-09  5.70776256E-09  5.70776256E-09  5.70776256E-09  5.70776256E-09  5.70776256E-09  5.70776256E-09  5.70776256E-09  1.18911720E-09  1.18911720E-09  1.18911720E-09  1.18911720E-09       0.00000000
         0.00000000       0.00000000
         0.00000000       0.00000000       0.00000000       0.00000000       0.00000000       0.00000000       0.00000000       0.00000000       0.00000000       0.00000000       0.00000000       0.00000000       0.00000000       0.00000000       0.00000000       0.00000000       0.00000000       0.00000000       0.00000000       0.00000000
         0.00000000       0.00000000       0.00000000       0.00000000  1.18911720E-09  5.70776256E-09  5.70776256E-09  5.70776256E-09  5.70776256E-09  5.70776256E-09  5.70776256E-09  5.70776256E-09  5.70776256E-09  1.18911720E-09  1.18911720E-09  1.18911720E-09       0.00000000       0.00000000       0.00000000       0.00000000
         0.00000000       0.00000000
         0.00000000       0.00000000       0.00000000       0.00000000       0.00000000       0.00000000       0.00000000       0.00000000       0.00000000       0.00000000       0.00000000       0.00000000       0.00000000       0.00000000       0.00000000       0.00000000       0.00000000       0.00000000       0.00000000       0.00000000
         0.00000000       0.00000000       0.00000000       0.00000000  1.18911720E-09  1.18911720E-09  1.18911720E-09  1.18911720E-09  1.18911720E-09  1.18911720E-09  1.18911720E-09       0.00000000       0.00000000       0.00000000       0.00000000       0.00000000       0.00000000       0.00000000       0.00000000       0.00000000
         0.00000000       0.00000000
END period  1

