BEGIN options
  SAVE_FLOWS
  ALTERNATIVE_CELL_AVERAGING  amt-hmk
  SAVE_SPECIFIC_DISCHARGE
END options

BEGIN griddata
  icelltype  LAYERED
    CONSTANT  0
    CONSTANT  0
    CONSTANT  0
    CONSTANT  0
    CONSTANT  0
  k  LAYERED
    INTERNAL  FACTOR  1.0
           0.00000000       0.00000000       0.00000000       0.00000000       0.00000000       0.00000000       0.00000000       0.00000000       0.00000000       0.00000000       0.00000000       0.00000000       0.00000000       0.00000000       0.00000000       0.00000000       0.00000000       0.00000000       0.00000000       0.00000000
           0.00000000       0.00000000       0.00000000       0.00000000       0.00000000       0.00000000       0.00000000       0.00000000       0.00000000       0.00240000       0.00240000       0.00240000  8.00000000E-05  8.00000000E-05  8.00000000E-05  8.00000000E-05  8.00000000E-05  8.00000000E-05  8.00000000E-05  8.00000000E-05
      8.00000000E-05  8.00000000E-05
           0.00000000       0.00000000       0.00000000       0.00000000       0.00000000       0.00000000       0.00000000       0.00000000       0.00000000       0.00000000       0.00000000       0.00000000       0.00000000       0.00000000       0.00000000       0.00000000       0.00000000       0.00000000       0.00000000       0.00000000
           0.00000000       0.00000000       0.00000000       0.00000000       0.00000000       0.00000000       0.00000000       0.00000000  2.40000000E-04       0.00240000       0.00240000  8.00000000E-05  8.00000000E-05  8.00000000E-05  8.00000000E-05  8.00000000E-05  8.00000000E-05  8.00000000E-05  8.00000000E-05  8.00000000E-05
      8.00000000E-05  8.00000000E-05
           0.00000000       0.00000000       0.00000000       0.00000000       0.00000000       0.00000000       0.00000000       0.00000000       0.00000000       0.00000000       0.00000000       0.00000000       0.00000000       0.00000000       0.00000000       0.00000000       0.00000000       0.00000000       0.00000000       0.00000000
           0.00000000       0.00000000       0.00000000       0.00000000       0.00000000       0.00000000       0.00000000  2.40000000E-04  2.40000000E-04       0.00240000       0.00240000  8.00000000E-05  8.00000000E-05  8.00000000E-05  8.00000000E-05  8.00000000E-05  8.00000000E-05  8.00000000E-05  8.00000000E-05  8.00000000E-05
      8.00000000E-05  8.00000000E-05
           0.00000000       0.00000000       0.00000000       0.00000000       0.00000000       0.00000000       0.00000000       0.00000000       0.00000000       0.00000000       0.00000000       0.00000000       0.00000000       0.00000000       0.00000000       0.00000000       0.00000000       0.00000000       0.00000000       0.00000000
           0.00000000       0.00000000       0.00000000       0.00000000       0.00000000       0.00000000  2.40000000E-04  2.40000000E-04       0.00120000       0.00240000       0.00240000       0.00240000  8.00000000E-05  8.00000000E-05  8.00000000E-05  8.00000000E-05  8.00000000E-05  8.00000000E-05  8.00000000E-05  8.00000000E-05
      8.00000000E-05  8.00000000E-05
           0.00000000       0.00000000       0.00000000       0.00000000       0.00000000       0.00000000       0.00000000       0.00000000       0.00000000       0.00000000       0.00000000       0.00000000       0.00000000       0.00000000       0.00000000       0.00000000       0.00000000       0.00000000       0.00000000       0.00000000
           0.00000000       0.00000000  8.00000000E-06  4.00000000E-05  8.00000000E-05  8.00000000E-05  2.40000000E-04  2.40000000E-04       0.00120000       0.00240000       0.00240000       0.00240000  8.00000000E-05  8.00000000E-05  8.00000000E-05  8.00000000E-05  8.00000000E-05  8.00000000E-05  8.00000000E-05  8.00000000E-05
      8.00000000E-05  8.00000000E-05
           0.00000000       0.00000000       0.00000000       0.00000000       0.00000000       0.00000000       0.00000000       0.00000000       0.00000000       0.00000000       0.00000000       0.00000000       0.00000000       0.00000000       0.00000000       0.00000000       0.00000000       0.00000000       0.00000000       0.00000000
           0.00000000       0.00000000  8.00000000E-05  8.00000000E-05  8.00000000E-05  8.00000000E-05  2.40000000E-04       0.00120000       0.00120000       0.00240000       0.00240000       0.00240000       0.00240000  8.00000000E-05  8.00000000E-05  8.00000000E-05  8.00000000E-05  8.00000000E-05  8.00000000E-05  8.00000000E-05
      8.00000000E-05  8.00000000E-05
           0.00000000       0.00000000       0.00000000       0.00000000       0.00000000       0.00000000       0.00000000       0.00000000       0.00000000       0.00000000       0.00000000       0.00000000       0.00000000       0.00000000       0.00000000       0.00000000       0.00000000       0.00000000       0.00000000       0.00000000
           0.00000000       0.00000000  8.00000000E-05  8.00000000E-05  8.00000000E-05  8.00000000E-05  2.40000000E-04       0.00120000       0.00120000       0.00240000       0.00240000       0.00240000       0.00240000       0.00240000  8.00000000E-05  8.00000000E-05  8.00000000E-05  8.00000000E-05  8.00000000E-05  8.00000000E-05
      8.00000000E-05  8.00000000E-05
           0.00000000       0.00000000       0.00000000       0.00000000       0.00000000       0.00000000       0.00000000       0.00000000       0.00000000       0.00000000       0.00000000       0.00000000       0.00000000       0.00000000       0.00000000       0.00000000       0.00000000       0.00000000       0.00000000       0.00000000
      8.00000000E-05  8.00000000E-05  8.00000000E-05  8.00000000E-05  8.00000000E-05  8.00000000E-05  2.40000000E-04  2.40000000E-04  2.40000000E-04       0.00240000       0.00240000       0.00240000       0.00240000       0.00240000       0.00240000  8.00000000E-05       0.00240000  8.00000000E-05  8.00000000E-05  8.00000000E-05
      8.00000000E-05  8.00000000E-05
           0.00000000       0.00000000       0.00000000       0.00000000       0.00000000       0.00000000       0.00000000       0.00000000       0.00000000       0.00000000       0.00000000       0.00000000       0.00000000       0.00000000       0.00000000       0.00000000       0.00000000       0.00000000       0.00000000       0.00000000
      8.00000000E-05  2.40000000E-04  2.40000000E-04  2.40000000E-04  2.40000000E-04  2.40000000E-04  2.40000000E-04  2.40000000E-04  2.40000000E-04       0.00240000       0.00240000       0.00240000       0.00240000       0.00240000       0.00240000       0.00240000       0.00240000  8.00000000E-05  8.00000000E-05  8.00000000E-05
      8.00000000E-05  8.00000000E-05
           0.00000000       0.00000000       0.00000000       0.00000000       0.00000000       0.00000000       0.00000000       0.00000000       0.00000000       0.00000000       0.00000000       0.00000000       0.00000000       0.00000000       0.00000000       0.00000000       0.00000000       0.00000000       0.00000000       0.00000000
      8.00000000E-05  2.40000000E-04  2.40000000E-04  2.40000000E-04  2.40000000E-04  2.40000000E-04  2.40000000E-04  2.40000000E-04  2.40000000E-04       0.00120000       0.00120000       0.00120000       0.00120000       0.00240000       0.00240000       0.00240000       0.00240000  8.00000000E-05  8.00000000E-05  8.00000000E-05
      8.00000000E-05  8.00000000E-05
           0.00000000       0.00000000       0.00000000       0.00000000       0.00000000       0.00000000       0.00000000       0.00000000       0.00000000       0.00000000       0.00000000       0.00000000       0.00000000       0.00000000       0.00000000       0.00000000       0.00000000       0.00000000       0.00000000       0.00000000
           0.00000000       0.00000000       0.00000000  2.40000000E-04  2.40000000E-04  2.40000000E-04  2.40000000E-04  2.40000000E-04  2.40000000E-04       0.00120000       0.00120000       0.00120000       0.00120000       0.00240000       0.00240000       0.00240000       0.00240000  8.00000000E-05  8.00000000E-05  8.00000000E-05
      8.00000000E-05  8.00000000E-05
           0.00000000       0.00000000       0.00000000       0.00000000       0.00000000       0.00000000       0.00000000       0.00000000       0.00000000       0.00000000       0.00000000       0.00000000       0.00000000       0.00000000       0.00000000       0.00000000       0.00000000       0.00000000       0.00000000       0.00000000
           0.00000000       0.00000000       0.00000000       0.00000000       0.00000000       0.00000000  8.00000000E-05  8.00000000E-05       0.00120000       0.00120000       0.00120000       0.00120000       0.00120000       0.00240000       0.00240000       0.00240000       0.00240000  8.00000000E-05  8.00000000E-05  8.00000000E-05
      8.00000000E-05  8.00000000E-05
           0.00000000       0.00000000       0.00000000       0.00000000       0.00000000       0.00000000       0.00000000       0.00000000       0.00000000       0.00000000       0.00000000       0.00000000       0.00000000       0.00000000       0.00000000       0.00000000       0.00000000       0.00000000       0.00000000       0.00000000
           0.00000000       0.00000000       0.00000000       0.00000000       0.00000000       0.00000000  8.00000000E-05  8.00000000E-05  8.00000000E-04  8.00000000E-04  8.00000000E-04  8.00000000E-04  8.00000000E-04  8.00000000E-04  8.00000000E-04       0.00240000       0.00240000  8.00000000E-05  8.00000000E-05  8.00000000E-05
      8.00000000E-05  8.00000000E-05
           0.00000000       0.00000000       0.00000000       0.00000000       0.00000000       0.00000000       0.00000000       0.00000000       0.00000000       0.00000000       0.00000000       0.00000000       0.00000000       0.00000000       0.00000000       0.00000000       0.00000000       0.00000000       0.00000000       0.00000000
           0.00000000       0.00000000       0.00000000       0.00000000       0.00000000       0.00000000  8.00000000E-05  1.60000000E-04  8.00000000E-04  8.00000000E-04  8.00000000E-04  8.00000000E-04  8.00000000E-04  8.00000000E-04  8.00000000E-04       0.00240000       0.00240000  8.00000000E-05  8.00000000E-05  8.00000000E-05
      8.00000000E-05  8.00000000E-05
           0.00000000       0.00000000       0.00000000       0.00000000       0.00000000       0.00000000       0.00000000       0.00000000       0.00000000       0.00000000       0.00000000       0.00000000       0.00000000       0.00000000       0.00000000       0.00000000       0.00000000       0.00000000       0.00000000       0.00000000
           0.00000000       0.00000000       0.00000000       0.00000000       0.00000000  8.00000000E-05  1.60000000E-04  1.60000000E-04  8.00000000E-04  8.00000000E-04  8.00000000E-04  8.00000000E-04  8.00000000E-04  8.00000000E-04  8.00000000E-04       0.00240000       0.00240000  8.00000000E-05  8.00000000E-05  8.00000000E-05
      8.00000000E-05  8.00000000E-05
           0.00000000       0.00000000       0.00000000       0.00000000       0.00000000       0.00000000       0.00000000       0.00000000       0.00000000       0.00000000       0.00000000       0.00000000       0.00000000       0.00000000       0.00000000       0.00000000       0.00000000       0.00000000       0.00000000       0.00000000
           0.00000000       0.00000000       0.00000000  4.00000000E-05  8.00000000E-05  2.40000000E-04  1.60000000E-04  1.60000000E-04  1.60000000E-04  1.60000000E-04  1.60000000E-04  1.60000000E-04  1.60000000E-04  1.60000000E-04  1.60000000E-04       0.00240000       0.00240000  8.00000000E-05  8.00000000E-05  8.00000000E-05
      8.00000000E-05  8.00000000E-05
           0.00000000       0.00000000       0.00000000       0.00000000       0.00000000       0.00000000       0.00000000       0.00000000       0.00000000       0.00000000       0.00000000       0.00000000       0.00000000       0.00000000       0.00000000       0.00000000       0.00000000       0.00000000  2.40000000E-05  2.40000000E-05
      2.40000000E-05  2.40000000E-05  2.40000000E-05  4.00000000E-04  2.40000000E-04  2.40000000E-04  1.60000000E-04  1.60000000E-04  1.60000000E-04  1.60000000E-04       0.00000000       0.00000000       0.00000000       0.00000000       0.00000000       0.00240000       0.00240000  8.00000000E-05  8.00000000E-05  8.00000000E-05
      8.00000000E-05  8.00000000E-05
           0.00000000       0.00000000       0.00000000       0.00000000       0.00000000       0.00000000  8.00000000E-05  4.00000000E-05  8.00000000E-06  8.00000000E-06  8.00000000E-06  8.00000000E-05  8.00000000E-06  2.40000000E-05  2.40000000E-05  2.40000000E-05  2.40000000E-05  2.40000000E-05  8.00000000E-05  8.00000000E-05
      4.00000000E-04  4.00000000E-04  4.00000000E-04  4.00000000E-04  8.00000000E-04  2.40000000E-04       0.00000000       0.00000000       0.00000000       0.00000000       0.00000000       0.00000000       0.00000000       0.00000000  1.60000000E-04       0.00240000       0.00240000  8.00000000E-05  8.00000000E-05  8.00000000E-05
      8.00000000E-05  8.00000000E-05
           0.00000000       0.00000000       0.00000000       0.00000000  1.60000000E-05  8.00000000E-05  6.40000000E-04  6.40000000E-04  6.40000000E-04  6.40000000E-04       0.00128000       0.00128000       0.00128000  8.00000000E-05  4.00000000E-04  4.00000000E-04  4.00000000E-04  4.00000000E-04  4.00000000E-04  4.00000000E-04
      4.00000000E-04  2.40000000E-04  2.40000000E-04  4.00000000E-04  8.00000000E-04       0.00000000       0.00000000       0.00000000       0.00000000       0.00000000       0.00000000       0.00000000       0.00000000       0.00000000  1.60000000E-04       0.00000000       0.00240000  8.00000000E-05  8.00000000E-05  8.00000000E-05
      8.00000000E-05  8.00000000E-05
           0.00000000       0.00000000       0.00000000  8.00000000E-05  8.00000000E-05  6.40000000E-04  6.40000000E-04  6.40000000E-04  6.40000000E-04  6.40000000E-04       0.00128000       0.00128000       0.00128000  4.00000000E-04  4.00000000E-04  4.00000000E-04  4.00000000E-04  4.00000000E-04  4.00000000E-04  4.00000000E-04
      4.00000000E-04  4.00000000E-04  4.00000000E-04  2.40000000E-04  8.00000000E-04       0.00000000       0.00000000       0.00000000       0.00000000       0.00000000       0.00000000       0.00000000       0.00000000       0.00000000  1.60000000E-04  8.00000000E-05  8.00000000E-05  8.00000000E-05  8.00000000E-05  8.00000000E-05
      8.00000000E-05  8.00000000E-05
           0.00000000  1.60000000E-05  8.00000000E-05  8.00000000E-05  8.00000000E-05  6.40000000E-04  6.40000000E-04  6.40000000E-04  6.40000000E-04  8.00000000E-04  9.60000000E-04       0.00128000       0.00128000  4.00000000E-04  4.00000000E-04  4.00000000E-04  4.00000000E-04  4.00000000E-04  4.00000000E-04  4.00000000E-04
      4.00000000E-04  4.00000000E-04  4.00000000E-04       0.00000000       0.00000000       0.00000000       0.00000000       0.00000000       0.00000000       0.00000000       0.00000000       0.00000000       0.00000000       0.00000000  1.60000000E-04  8.00000000E-05  8.00000000E-05  8.00000000E-05  8.00000000E-05  8.00000000E-05
      8.00000000E-05  8.00000000E-05
      1.60000000E-05  1.60000000E-05  4.80000000E-05  1.60000000E-05  1.60000000E-05  1.60000000E-05  1.60000000E-05  1.60000000E-05  1.60000000E-05  2.40000000E-05       0.00176000       0.00128000  4.00000000E-04  4.00000000E-04  4.00000000E-04  4.00000000E-04  4.00000000E-04  2.40000000E-04  2.40000000E-04  3.20000000E-04
      6.40000000E-04  2.40000000E-04  2.40000000E-04       0.00000000       0.00000000       0.00000000       0.00000000       0.00000000       0.00000000       0.00000000       0.00000000       0.00000000  1.60000000E-04  1.60000000E-04       0.00160000       0.00240000  8.00000000E-05  8.00000000E-05  8.00000000E-05  8.00000000E-05
      8.00000000E-05  8.00000000E-05
      4.80000000E-05  1.60000000E-05  1.60000000E-05  1.60000000E-05       0.00000000       0.00000000       0.00000000       0.00000000       0.00000000  2.40000000E-05  2.40000000E-05  1.20000000E-04  6.40000000E-04  4.00000000E-04  4.00000000E-04  2.40000000E-04  2.40000000E-04  1.60000000E-04  1.60000000E-04  1.60000000E-04
      2.40000000E-04       0.00000000       0.00000000       0.00000000       0.00000000       0.00000000       0.00000000       0.00000000  1.60000000E-04  1.60000000E-04  1.60000000E-04  8.00000000E-05  8.00000000E-04  8.00000000E-04       0.00160000       0.00240000  8.00000000E-05  8.00000000E-05  8.00000000E-05  8.00000000E-05
      8.00000000E-05  8.00000000E-05
      1.60000000E-05       0.00000000       0.00000000       0.00000000       0.00000000       0.00000000       0.00000000       0.00000000       0.00000000       0.00000000       0.00000000  8.00000000E-06  2.40000000E-05  4.00000000E-04  2.40000000E-04  4.00000000E-05  4.00000000E-05       0.00000000       0.00000000       0.00000000
           0.00000000       0.00000000       0.00000000       0.00000000       0.00000000       0.00000000       0.00000000       0.00000000       0.00000000  1.60000000E-04  1.60000000E-04  8.00000000E-05  8.00000000E-04  8.00000000E-04       0.00160000       0.00240000       0.00240000  8.00000000E-05  8.00000000E-05  8.00000000E-05
      8.00000000E-05  8.00000000E-05
           0.00000000       0.00000000       0.00000000       0.00000000       0.00000000       0.00000000       0.00000000       0.00000000       0.00000000       0.00000000       0.00000000       0.00000000       0.00000000  2.40000000E-05  2.40000000E-05       0.00000000       0.00000000       0.00000000       0.00000000       0.00000000
           0.00000000       0.00000000       0.00000000       0.00000000       0.00000000       0.00000000       0.00000000       0.00000000  1.60000000E-04  1.60000000E-04  1.60000000E-04       0.00160000       0.00160000       0.00160000       0.00160000       0.00240000       0.00240000  8.00000000E-05  8.00000000E-05  8.00000000E-05
      8.00000000E-05  8.00000000E-05
           0.00000000       0.00000000       0.00000000       0.00000000       0.00000000       0.00000000       0.00000000       0.00000000       0.00000000       0.00000000       0.00000000       0.00000000       0.00000000       0.00000000       0.00000000       0.00000000       0.00000000       0.00000000       0.00000000       0.00000000
           0.00000000       0.00000000       0.00000000       0.00000000       0.00000000       0.00000000       0.00000000       0.00000000  1.60000000E-04  1.60000000E-04       0.00000000       0.00160000       0.00160000       0.00160000  8.00000000E-04       0.00240000       0.00240000  8.00000000E-05  8.00000000E-05  8.00000000E-05
      8.00000000E-05  8.00000000E-05
           0.00000000       0.00000000       0.00000000       0.00000000       0.00000000       0.00000000       0.00000000       0.00000000       0.00000000       0.00000000       0.00000000       0.00000000       0.00000000       0.00000000       0.00000000       0.00000000       0.00000000       0.00000000       0.00000000       0.00000000
           0.00000000       0.00000000       0.00000000       0.00000000       0.00000000       0.00000000       0.00000000       0.00000000  1.60000000E-04  1.60000000E-04  2.40000000E-04       0.00160000       0.00160000       0.00320000       0.00000000       0.00240000       0.00240000  8.00000000E-05  8.00000000E-05  8.00000000E-05
      8.00000000E-05  8.00000000E-05
           0.00000000       0.00000000       0.00000000       0.00000000       0.00000000       0.00000000       0.00000000       0.00000000       0.00000000       0.00000000       0.00000000       0.00000000       0.00000000       0.00000000       0.00000000       0.00000000       0.00000000       0.00000000       0.00000000       0.00000000
           0.00000000       0.00000000       0.00000000       0.00000000       0.00000000       0.00000000       0.00000000       0.00000000       0.00000000  1.60000000E-04  2.40000000E-04  2.40000000E-04       0.00160000       0.00000000       0.00000000       0.00240000       0.00240000  8.00000000E-05  8.00000000E-05  8.00000000E-05
      8.00000000E-05  8.00000000E-05
           0.00000000       0.00000000       0.00000000       0.00000000       0.00000000       0.00000000       0.00000000       0.00000000       0.00000000       0.00000000       0.00000000       0.00000000       0.00000000       0.00000000       0.00000000       0.00000000       0.00000000       0.00000000       0.00000000       0.00000000
           0.00000000       0.00000000       0.00000000       0.00000000       0.00000000       0.00000000       0.00000000       0.00000000       0.00000000       0.00000000  2.40000000E-04  2.40000000E-04       0.00000000  2.40000000E-04  2.40000000E-04       0.00240000       0.00240000       0.00240000  8.00000000E-05  8.00000000E-05
      8.00000000E-05  8.00000000E-05
           0.00000000       0.00000000       0.00000000       0.00000000       0.00000000       0.00000000       0.00000000       0.00000000       0.00000000       0.00000000       0.00000000       0.00000000       0.00000000       0.00000000       0.00000000       0.00000000       0.00000000       0.00000000       0.00000000       0.00000000
           0.00000000       0.00000000       0.00000000       0.00000000       0.00000000       0.00000000       0.00000000       0.00000000       0.00000000       0.00000000  2.40000000E-04  2.40000000E-04  2.40000000E-04  2.40000000E-04  2.40000000E-04       0.00240000       0.00240000       0.00240000  8.00000000E-05  8.00000000E-05
      8.00000000E-05  8.00000000E-05
           0.00000000       0.00000000       0.00000000       0.00000000       0.00000000       0.00000000       0.00000000       0.00000000       0.00000000       0.00000000       0.00000000       0.00000000       0.00000000       0.00000000       0.00000000       0.00000000       0.00000000       0.00000000       0.00000000       0.00000000
           0.00000000       0.00000000       0.00000000       0.00000000       0.00000000       0.00000000       0.00000000       0.00000000       0.00000000  2.40000000E-04  2.40000000E-04  2.40000000E-04  2.40000000E-04  8.00000000E-05  8.00000000E-05       0.00240000       0.00240000       0.00240000  8.00000000E-05  8.00000000E-05
      8.00000000E-05  8.00000000E-05
           0.00000000       0.00000000       0.00000000       0.00000000       0.00000000       0.00000000       0.00000000       0.00000000       0.00000000       0.00000000       0.00000000       0.00000000       0.00000000       0.00000000       0.00000000       0.00000000       0.00000000       0.00000000       0.00000000       0.00000000
           0.00000000       0.00000000       0.00000000       0.00000000       0.00000000       0.00000000       0.00000000  1.60000000E-04  1.60000000E-04  2.40000000E-04  8.00000000E-05  8.00000000E-05  8.00000000E-05  8.00000000E-05  1.60000000E-04       0.00240000       0.00240000       0.00240000  8.00000000E-05  8.00000000E-05
      8.00000000E-05  8.00000000E-05
           0.00000000       0.00000000       0.00000000       0.00000000       0.00000000       0.00000000       0.00000000       0.00000000       0.00000000       0.00000000       0.00000000       0.00000000       0.00000000       0.00000000       0.00000000       0.00000000       0.00000000       0.00000000       0.00000000       0.00000000
           0.00000000       0.00000000       0.00000000       0.00000000       0.00000000       0.00000000  1.60000000E-04  8.00000000E-05  4.00000000E-05  4.00000000E-05  8.00000000E-05  4.00000000E-05  4.00000000E-05  8.00000000E-05  1.60000000E-04       0.00240000       0.00240000       0.00240000  8.00000000E-05  8.00000000E-05
      8.00000000E-05  8.00000000E-05
           0.00000000       0.00000000       0.00000000       0.00000000       0.00000000       0.00000000       0.00000000       0.00000000       0.00000000       0.00000000       0.00000000       0.00000000       0.00000000       0.00000000       0.00000000       0.00000000       0.00000000       0.00000000       0.00000000       0.00000000
           0.00000000       0.00000000       0.00000000       0.00000000       0.00000000  8.00000000E-05  1.60000000E-04  8.00000000E-05  4.00000000E-05  4.00000000E-05  4.00000000E-05  4.00000000E-05  4.00000000E-05  8.00000000E-05  1.60000000E-04       0.00240000       0.00240000       0.00240000  8.00000000E-05  8.00000000E-05
      8.00000000E-05  8.00000000E-05
           0.00000000       0.00000000       0.00000000       0.00000000       0.00000000       0.00000000       0.00000000       0.00000000       0.00000000       0.00000000       0.00000000       0.00000000       0.00000000       0.00000000       0.00000000       0.00000000       0.00000000       0.00000000       0.00000000       0.00000000
           0.00000000       0.00000000       0.00000000       0.00000000  8.00000000E-05  8.00000000E-05  8.00000000E-06  8.00000000E-06  4.00000000E-05  4.00000000E-05  4.00000000E-05  4.00000000E-05  4.00000000E-05  8.00000000E-05  1.60000000E-04       0.00000000       0.00240000       0.00240000  8.00000000E-05  8.00000000E-05
      8.00000000E-05  8.00000000E-05
           0.00000000       0.00000000       0.00000000       0.00000000       0.00000000       0.00000000       0.00000000       0.00000000       0.00000000       0.00000000       0.00000000       0.00000000       0.00000000       0.00000000       0.00000000       0.00000000       0.00000000       0.00000000       0.00000000       0.00000000
           0.00000000       0.00000000       0.00000000       0.00000000  8.00000000E-05  8.00000000E-05  8.00000000E-06  8.00000000E-06  4.00000000E-05  4.00000000E-05  4.00000000E-05  4.00000000E-05  4.00000000E-05  8.00000000E-05  8.00000000E-05       0.00000000       0.00000000       0.00000000       0.00000000  8.00000000E-05
      8.00000000E-05  8.00000000E-05
           0.00000000       0.00000000       0.00000000       0.00000000       0.00000000       0.00000000       0.00000000       0.00000000       0.00000000       0.00000000       0.00000000       0.00000000       0.00000000       0.00000000       0.00000000       0.00000000       0.00000000       0.00000000       0.00000000       0.00000000
           0.00000000       0.00000000       0.00000000       0.00000000       0.00000000  8.00000000E-05  8.00000000E-05  8.00000000E-05  4.00000000E-05  4.00000000E-05  4.00000000E-05  4.00000000E-05  8.00000000E-06       0.00000000       0.00000000       0.00000000       0.00000000       0.00000000       0.00000000       0.00000000
           0.00000000       0.00000000
           0.00000000       0.00000000       0.00000000       0.00000000       0.00000000       0.00000000       0.00000000       0.00000000       0.00000000       0.00000000       0.00000000       0.00000000       0.00000000       0.00000000       0.00000000       0.00000000       0.00000000       0.00000000       0.00000000       0.00000000
           0.00000000       0.00000000       0.00000000       0.00000000       0.00000000       0.00000000       0.00000000       0.00000000       0.00000000       0.00000000       0.00000000       0.00000000       0.00000000       0.00000000       0.00000000       0.00000000       0.00000000       0.00000000       0.00000000       0.00000000
           0.00000000       0.00000000
    INTERNAL  FACTOR  1.0
      2.50000000E-09  2.50000000E-09  2.50000000E-09  2.50000000E-09  2.50000000E-09  2.50000000E-09  2.50000000E-09  2.50000000E-09  2.50000000E-09  2.50000000E-09  2.50000000E-09  2.50000000E-09  2.50000000E-09  2.50000000E-09  2.50000000E-09  2.50000000E-09  2.50000000E-09  2.50000000E-09  2.50000000E-09  2.50000000E-09
      2.50000000E-09  2.50000000E-09  2.50000000E-09  2.50000000E-09  2.50000000E-09  2.50000000E-09  2.50000000E-09  2.50000000E-09  2.50000000E-09  2.50000000E-09  2.50000000E-09  2.50000000E-09  2.50000000E-09  2.50000000E-09  2.50000000E-09  2.50000000E-09  2.50000000E-09  2.50000000E-09  2.50000000E-09  2.50000000E-09
      2.50000000E-09  2.50000000E-09
      2.50000000E-09  2.50000000E-09  2.50000000E-09  2.50000000E-09  2.50000000E-09  2.50000000E-09  2.50000000E-09  2.50000000E-09  2.50000000E-09  2.50000000E-09  2.50000000E-09  2.50000000E-09  2.50000000E-09  2.50000000E-09  2.50000000E-09  2.50000000E-09  2.50000000E-09  2.50000000E-09  2.50000000E-09  2.50000000E-09
      2.50000000E-09  2.50000000E-09  2.50000000E-09  2.50000000E-09  2.50000000E-09  2.50000000E-09  2.50000000E-09  2.50000000E-09  2.50000000E-09  2.50000000E-09  2.50000000E-09  2.50000000E-09  2.50000000E-09  2.50000000E-09  2.50000000E-09  2.50000000E-09  2.50000000E-09  2.50000000E-09  2.50000000E-09  2.50000000E-09
      2.50000000E-09  2.50000000E-09
      2.50000000E-09  2.50000000E-09  2.50000000E-09  2.50000000E-09  2.50000000E-09  2.50000000E-09  2.50000000E-09  2.50000000E-09  2.50000000E-09  2.50000000E-09  2.50000000E-09  2.50000000E-09  2.50000000E-09  2.50000000E-09  2.50000000E-09  2.50000000E-09  2.50000000E-09  2.50000000E-09  2.50000000E-09  2.50000000E-09
      2.50000000E-09  2.50000000E-09  2.50000000E-09  2.50000000E-09  2.50000000E-09  2.50000000E-09  2.50000000E-09  2.50000000E-09  2.50000000E-09  2.50000000E-09  2.50000000E-09  2.50000000E-09  2.50000000E-09  2.50000000E-09  2.50000000E-09  2.50000000E-09  2.50000000E-09  2.50000000E-09  2.50000000E-09  2.50000000E-09
      2.50000000E-09  2.50000000E-09
      2.50000000E-09  2.50000000E-09  2.50000000E-09  2.50000000E-09  2.50000000E-09  2.50000000E-09  2.50000000E-09  2.50000000E-09  2.50000000E-09  2.50000000E-09  2.50000000E-09  2.50000000E-09  2.50000000E-09  2.50000000E-09  2.50000000E-09  2.50000000E-09  2.50000000E-09  2.50000000E-09  2.50000000E-09  2.50000000E-09