BEGIN options
END options

BEGIN dimensions
  MAXBOUND  401
END dimensions

BEGIN period  1
  1 8 32  -3.17097920E-09
  1 9 21  -2.88559107E-09
  1 9 29  -1.04642314E-09
  1 10 24  -6.34195840E-10
  1 10 25  -6.34195840E-09
  1 10 34  -1.26839168E-08
  1 11 29  -5.96144089E-09
  1 12 34  -9.51293760E-09
  1 13 28  -3.17097920E-09
  1 14 30  -9.51293760E-09
  1 15 34  -3.17097920E-09
  1 17 22  -3.17097920E-09
  1 17 26  -1.58548960E-09
  1 18 16  -2.85388128E-09
  1 18 20  -1.58548960E-09
  1 19 6  -2.21968544E-09
  1 19 7  -1.26839168E-09
  1 19 10  -8.87874176E-09
  1 19 12  -2.53678336E-08
  1 19 16  -9.51293760E-10
  1 19 19  -2.63191273E-09
  1 19 25  -1.58548960E-08
  1 20 12  -2.09284627E-09
  1 20 14  -1.58548960E-09
  1 20 18  -3.17097920E-09
  1 21 3  -6.34195840E-09
  1 21 4  -3.17097920E-09
  1 21 12  -2.85388128E-08
  1 21 21  -3.17097920E-09
  1 22 2  -1.90258752E-09
  1 22 3  -3.17097920E-09
  1 22 4  -4.75646880E-09
  1 23 1  -8.24454592E-09
  1 24 14  -7.32496195E-09
  1 25 15  -6.34195840E-10
  1 27 34  -4.18886352E-08
  1 28 32  -3.17097920E-09
  1 29 32  -5.58092339E-09
  1 29 36  -3.41831558E-08
  1 31 32  -2.02942669E-09
  1 31 34  -6.34195840E-09
  1 31 35  -1.58548960E-09
  1 33 27  -1.58548960E-09
  1 33 29  -1.01788432E-08
  1 34 27  -2.53678336E-09
  3 2 38  -6.34195840E-09
  3 3 38  -2.85388128E-10
  3 4 38  -2.21968544E-09
  3 5 36  -6.34195840E-11
  3 5 37  -4.75646880E-10
  3 6 33  -9.51293760E-11
  3 7 34  -2.40677321E-08
  3 7 35  -6.34195840E-11
  3 8 33  -2.31481481E-09
  3 8 34  -4.97843734E-09
  3 8 35  -1.48084729E-08
  3 8 36  -5.70776256E-10
  3 8 37  -1.58548960E-10
  3 9 32  -1.61719939E-09
  3 9 35  -7.99086758E-09
  3 9 37  -4.37595129E-09
  3 10 33  -1.27473364E-08
  3 10 34  -4.05885337E-09
  3 11 35  -1.07813293E-09
  3 12 33  -3.17097920E-10
  3 12 35  -9.51293760E-09
  3 15 34  -8.87874176E-09
  3 15 36  -3.93201421E-09
  3 15 39  -1.26839168E-09
  3 16 35  -3.74175545E-09
  3 16 36  -6.65905632E-10
  5 1 30  -3.17097920E-11
  5 1 31  -4.75646880E-10
  5 2 29  -6.34195840E-10
  5 2 38  -5.70776256E-10
  5 3 28  -6.50050736E-09
  5 3 29  -1.58548960E-10
  5 3 31  -8.56164384E-10
  5 4 25  -9.51293760E-11
  5 4 26  -1.39523085E-09
  5 4 28  -4.12227296E-10
  5 4 29  -1.26839168E-10
  5 4 30  -3.17097920E-11
  5 4 31  -4.43937088E-10
  5 5 27  -1.26839168E-10
  5 5 29  -2.53678336E-10
  5 5 30  -1.58548960E-10
  5 5 31  -3.17097920E-11
  5 6 24  -4.75646880E-10
  5 6 26  -1.33181126E-09
  5 6 27  -1.30644343E-08
  5 6 29  -6.34195840E-11
  5 6 38  -1.61719939E-09
  5 7 23  -3.17097920E-10
  5 7 26  -6.02486048E-10
  5 7 27  -3.29781837E-09
  5 7 28  -3.80517504E-10
  5 7 30  -6.34195840E-11
  5 7 34  -5.51750381E-09
  5 7 36  -3.17097920E-11
  5 7 37  -1.58548960E-10
  5 8 27  -6.97615424E-10
  5 8 28  -9.51293760E-11
  5 8 29  -6.34195840E-11
  5 8 33  -6.65905632E-09
  5 8 34  -2.18797565E-09
  5 9 21  -3.17097920E-11
  5 9 24  -3.58320649E-09
  5 9 26  -6.34195840E-11
  5 9 27  -1.90258752E-10
  5 9 32  -1.93429731E-09
  5 9 37  -3.17097920E-10
  5 10 21  -5.20040589E-09
  5 10 22  -3.17097920E-10
  5 10 24  -4.75646880E-10
  5 10 25  -2.53678336E-10
  5 10 26  -9.51293760E-11
  5 10 29  -6.34195840E-11
  5 11 22  -3.17097920E-11
  5 11 23  -3.17097920E-11
  5 11 24  -3.17097920E-10
  5 11 25  -1.47133435E-08
  5 11 27  -6.34195840E-11
  5 11 31  -5.61263318E-09
  5 12 21  -3.17097920E-11
  5 12 23  -5.39066464E-09
  5 12 24  -6.21511923E-09
  5 12 25  -6.34195840E-11
  5 12 26  -1.90258752E-10
  5 13 25  -3.17097920E-11
  5 13 26  -1.58548960E-10
  5 13 27  -1.58548960E-10
  5 13 28  -1.58548960E-10
  5 13 35  -1.42694064E-09
  5 14 26  -9.51293760E-11
  5 14 27  -1.09715880E-08
  5 14 29  -9.38609843E-09
  5 14 31  -1.58548960E-10
  5 14 36  -4.02714358E-09
  5 15 23  -6.34195840E-11
  5 15 24  -6.34195840E-11
  5 15 26  -8.78361238E-09
  5 15 27  -6.97615424E-10
  5 15 36  -3.96372400E-09
  5 16 18  -9.51293760E-11
  5 16 20  -3.17097920E-10
  5 16 21  -6.43708777E-09
  5 16 22  -3.04414003E-09
  5 16 23  -9.83003551E-10
  5 16 24  -3.17097920E-11
  5 16 25  -6.34195840E-11
  5 16 26  -1.12886859E-08
  5 16 27  -3.17097920E-11
  5 17 16  -1.58548960E-10
  5 17 17  -4.75646880E-10
  5 17 18  -6.78589548E-09
  5 17 20  -9.51293760E-11
  5 17 21  -1.74403856E-08
  5 17 22  -7.80060883E-09
  5 17 23  -5.20040589E-09
  5 17 24  -6.34195840E-11
  5 17 26  -1.58548960E-10
  5 17 30  -1.26839168E-10
  5 17 31  -3.80517504E-10
  5 17 32  -7.61035008E-10
  5 17 33  -2.85388128E-10
  5 17 34  -1.58548960E-10
  5 17 35  -1.64890918E-08
  5 17 36  -9.89345510E-09
  5 17 37  -9.89345510E-09
  5 18 10  -3.17097920E-11
  5 18 11  -1.26839168E-10
  5 18 12  -2.91730086E-09
  5 18 15  -9.51293760E-11
  5 18 16  -2.85388128E-10
  5 18 17  -4.43937088E-10
  5 18 20  -5.51750381E-09
  5 18 21  -3.17097920E-10
  5 18 22  -5.07356672E-10
  5 18 23  -2.53678336E-10
  5 18 24  -3.29781837E-09
  5 18 25  -9.51293760E-11
  5 18 26  -1.26839168E-09
  5 18 27  -1.14155251E-08
  5 18 28  -1.58548960E-10
  5 18 29  -4.12227296E-10
  5 18 30  -1.58548960E-10
  5 18 31  -1.90258752E-10
  5 18 32  -1.26839168E-10
  5 18 33  -2.21968544E-10
  5 18 34  -1.58548960E-10
  5 19 11  -5.32090309E-08
  5 19 12  -5.99315068E-09
  5 19 15  -4.75646880E-10
  5 19 16  -2.85388128E-10
  5 19 17  -2.98072045E-09
  5 19 19  -7.92744800E-10
  5 19 20  -1.23668189E-09
  5 19 21  -2.21968544E-10
  5 19 22  -3.48807712E-10
  5 19 23  -2.12455606E-09
  5 19 24  -9.51293760E-11
  5 19 25  -9.83003551E-10
  5 19 26  -1.58548960E-10
  5 19 27  -2.21968544E-09
  5 19 28  -1.26839168E-10
  5 19 29  -7.29325216E-10
  5 19 30  -2.21968544E-10
  5 19 31  -9.51293760E-11
  5 19 32  -9.51293760E-11
  5 19 33  -2.53678336E-10
  5 19 34  -3.17097920E-11
  5 19 35  -1.26839168E-10
  5 19 37  -6.34195840E-10
  5 20 14  -1.26839168E-10
  5 20 15  -4.66133942E-09
  5 20 16  -3.17097920E-10
  5 20 17  -3.17097920E-11
  5 20 19  -3.17097920E-11
  5 20 20  -3.17097920E-11
  5 20 21  -1.68061898E-09
  5 20 22  -3.80517504E-10
  5 20 23  -3.26610857E-09
  5 20 24  -1.01471334E-09
  5 20 25  -2.21968544E-10
  5 20 26  -3.17097920E-10
  5 20 27  -7.29325216E-10
  5 20 28  -3.48807712E-10
  5 20 29  -1.74403856E-09
  5 20 30  -1.96917808E-08
  5 20 31  -1.58548960E-10
  5 20 33  -9.51293760E-11
  5 20 34  -1.58548960E-10
  5 20 37  -2.47336377E-09
  5 21 9  -6.34195840E-11
  5 21 12  -3.17097920E-10
  5 21 13  -5.54921360E-09
  5 21 16  -4.75646880E-10
  5 21 21  -2.56849315E-09
  5 21 22  -4.43937088E-10
  5 21 23  -1.26839168E-10
  5 21 24  -3.17097920E-10
  5 21 25  -1.58548960E-10
  5 21 26  -2.44165398E-09
  5 21 27  -3.80517504E-10
  5 21 28  -9.83003551E-10
  5 21 29  -2.53678336E-10
  5 21 31  -3.80517504E-10
  5 21 34  -1.25253678E-08
  5 22 10  -1.58548960E-10
  5 22 11  -1.58548960E-10
  5 22 12  -5.39066464E-10
  5 22 13  -1.58548960E-10
  5 22 15  -9.51293760E-11
  5 22 16  -9.51293760E-11
  5 22 17  -6.34195840E-11
  5 22 19  -1.90258752E-10
  5 22 20  -3.17097920E-11
  5 22 21  -3.80517504E-10
  5 22 22  -1.76306443E-08
  5 22 23  -3.48807712E-10
  5 22 24  -3.80517504E-10
  5 22 25  -2.21968544E-10
  5 22 26  -9.51293760E-11
  5 22 27  -2.53678336E-10
  5 22 28  -6.34195840E-11
  5 22 29  -6.34195840E-11
  5 22 30  -9.95687468E-09
  5 22 32  -6.34195840E-11
  5 22 34  -8.46651446E-09
  5 23 10  -1.26839168E-09
  5 23 13  -3.80517504E-10
  5 23 19  -3.80517504E-10
  5 23 21  -8.56164384E-10
  5 23 22  -2.85388128E-10
  5 23 23  -1.90258752E-10
  5 23 25  -6.34195840E-11
  5 23 26  -3.80517504E-10
  5 23 27  -1.26839168E-10
  5 23 28  -3.17097920E-11
  5 23 29  -6.34195840E-11
  5 23 30  -9.00558092E-09
  5 23 31  -2.53678336E-10
  5 23 32  -2.85388128E-10
  5 23 33  -3.17097920E-10
  5 23 34  -1.17326230E-09
  5 23 35  -9.51293760E-11
  5 24 14  -1.62671233E-08
  5 24 15  -6.34195840E-11
  5 24 19  -6.34195840E-11
  5 24 20  -6.34195840E-11
  5 24 21  -7.61035008E-09
  5 24 22  -3.17097920E-10
  5 24 25  -6.34195840E-11
  5 24 30  -6.34195840E-11
  5 24 33  -4.02714358E-09
  5 24 34  -1.58548960E-10
  5 25 14  -1.98503298E-08
  5 25 15  -1.77574835E-09
  5 25 21  -1.58548960E-10
  5 25 22  -9.51293760E-11
  5 25 23  -1.04642314E-09
  5 25 24  -1.10667174E-08
  5 25 28  -9.03729072E-09
  5 25 29  -9.51293760E-11
  5 25 31  -2.94901065E-09
  5 25 34  -5.39066464E-10
  5 25 35  -1.58548960E-10
  5 26 15  -1.58548960E-10
  5 26 16  -1.26839168E-10
  5 26 20  -4.18569254E-09
  5 26 21  -9.51293760E-11
  5 26 22  -5.70776256E-10
  5 26 23  -1.58548960E-10
  5 26 28  -1.26839168E-10
  5 26 29  -1.58548960E-10
  5 26 31  -4.75646880E-09
  5 26 32  -6.34195840E-11
  5 26 36  -6.34195840E-11
  5 27 16  -2.85388128E-10
  5 27 17  -9.51293760E-11
  5 27 18  -6.34195840E-11
  5 27 19  -2.53678336E-10
  5 27 20  -6.34195840E-11
  5 27 22  -6.34195840E-11
  5 27 23  -6.34195840E-11
  5 27 24  -9.51293760E-11
  5 27 25  -9.51293760E-11
  5 27 26  -9.51293760E-11
  5 27 27  -4.62962963E-09
  5 27 28  -4.43937088E-10
  5 27 29  -3.80517504E-10
  5 27 33  -4.75646880E-10
  5 27 35  -1.26839168E-10
  5 27 36  -2.21968544E-10
  5 27 37  -4.12227296E-10
  5 27 38  -6.34195840E-11
  5 28 16  -1.58548960E-09
  5 28 18  -3.90030441E-09
  5 28 19  -1.26839168E-10
  5 28 20  -1.58548960E-10
  5 28 21  -1.58548960E-10
  5 28 23  -9.51293760E-11
  5 28 25  -1.14155251E-09
  5 28 27  -1.96600710E-09
  5 28 28  -9.79832572E-09
  5 28 29  -8.87874176E-10
  5 28 30  -1.04642314E-08
  5 28 33  -5.64434297E-09
  5 28 34  -1.26839168E-10
  5 28 35  -5.29553526E-09
  5 28 36  -1.26839168E-10
  5 29 22  -4.75646880E-10
  5 29 26  -6.34195840E-11
  5 29 28  -1.26839168E-10
  5 29 29  -1.36035008E-08
  5 29 30  -3.30733130E-08
  5 29 31  -6.34195840E-11
  5 29 32  -1.26839168E-10
  5 29 33  -3.17097920E-10
  5 29 38  -1.26839168E-10
  5 30 18  -3.48807712E-10
  5 30 20  -4.12227296E-10
  5 30 25  -6.34195840E-11
  5 30 28  -1.26839168E-10
  5 30 31  -1.00202943E-08
  5 30 33  -1.38254693E-08
  5 30 35  -6.34195840E-11
  5 31 16  -1.55695079E-08
  5 31 17  -1.58548960E-10
  5 31 18  -6.34195840E-11
  5 31 19  -1.58548960E-10
  5 31 24  -1.26839168E-10
  5 31 25  -6.34195840E-11
  5 31 27  -1.58548960E-10
  5 31 28  -6.34195840E-11
  5 31 29  -9.51293760E-11
  5 31 30  -9.19583968E-10
  5 32 16  -6.34195840E-11
  5 32 23  -5.32724505E-09
  5 32 27  -2.53678336E-10
  5 32 28  -1.90258752E-10
  5 32 29  -6.34195840E-11
  5 32 30  -6.34195840E-11
  5 32 35  -1.58548960E-10
  5 33 15  -6.34195840E-11
  5 33 18  -6.34195840E-11
  5 33 19  -6.34195840E-11
  5 33 24  -9.51293760E-11
  5 33 31  -1.58548960E-10
  5 34 32  -6.34195840E-11
  5 34 33  -6.34195840E-11
  5 35 29  -6.34195840E-11
  5 35 32  -6.34195840E-11
  5 35 35  -3.17097920E-11
  5 35 37  -6.34195840E-11
  5 36 28  -6.34195840E-11
  5 36 34  -1.58548960E-10
  5 36 35  -1.58548960E-10
  5 36 36  -1.26839168E-10
  5 36 38  -3.17097920E-10
END period  1

