BEGIN options
END options

BEGIN dimensions
  MAXBOUND  401
END dimensions

BEGIN period  1
  1 8 32      -0.00317098
  1 9 21      -0.00288559
  1 9 29      -0.00104642
  1 10 24  -6.34195840E-04
  1 10 25      -0.00634196
  1 10 34      -0.01268392
  1 11 29      -0.00596144
  1 12 34      -0.00951294
  1 13 28      -0.00317098
  1 14 30      -0.00951294
  1 15 34      -0.00317098
  1 17 22      -0.00317098
  1 17 26      -0.00158549
  1 18 16      -0.00285388
  1 18 20      -0.00158549
  1 19 6      -0.00221969
  1 19 7      -0.00126839
  1 19 10      -0.00887874
  1 19 12      -0.02536783
  1 19 16  -9.51293760E-04
  1 19 19      -0.00263191
  1 19 25      -0.01585490
  1 20 12      -0.00209285
  1 20 14      -0.00158549
  1 20 18      -0.00317098
  1 21 3      -0.00634196
  1 21 4      -0.00317098
  1 21 12      -0.02853881
  1 21 21      -0.00317098
  1 22 2      -0.00190259
  1 22 3      -0.00317098
  1 22 4      -0.00475647
  1 23 1      -0.00824455
  1 24 14      -0.00732496
  1 25 15  -6.34195840E-04
  1 27 34      -0.04188864
  1 28 32      -0.00317098
  1 29 32      -0.00558092
  1 29 36      -0.03418316
  1 31 32      -0.00202943
  1 31 34      -0.00634196
  1 31 35      -0.00158549
  1 33 27      -0.00158549
  1 33 29      -0.01017884
  1 34 27      -0.00253678
  3 2 38      -0.00634196
  3 3 38  -2.85388128E-04
  3 4 38      -0.00221969
  3 5 36  -6.34195840E-05
  3 5 37  -4.75646880E-04
  3 6 33  -9.51293760E-05
  3 7 34      -0.02406773
  3 7 35  -6.34195840E-05
  3 8 33      -0.00231481
  3 8 34      -0.00497844
  3 8 35      -0.01480847
  3 8 36  -5.70776256E-04
  3 8 37  -1.58548960E-04
  3 9 32      -0.00161720
  3 9 35      -0.00799087
  3 9 37      -0.00437595
  3 10 33      -0.01274734
  3 10 34      -0.00405885
  3 11 35      -0.00107813
  3 12 33  -3.17097920E-04
  3 12 35      -0.00951294
  3 15 34      -0.00887874
  3 15 36      -0.00393201
  3 15 39      -0.00126839
  3 16 35      -0.00374176
  3 16 36  -6.65905632E-04
  5 1 30  -3.17097920E-05
  5 1 31  -4.75646880E-04
  5 2 29  -6.34195840E-04
  5 2 38  -5.70776256E-04
  5 3 28      -0.00650051
  5 3 29  -1.58548960E-04
  5 3 31  -8.56164384E-04
  5 4 25  -9.51293760E-05
  5 4 26      -0.00139523
  5 4 28  -4.12227296E-04
  5 4 29  -1.26839168E-04
  5 4 30  -3.17097920E-05
  5 4 31  -4.43937088E-04
  5 5 27  -1.26839168E-04
  5 5 29  -2.53678336E-04
  5 5 30  -1.58548960E-04
  5 5 31  -3.17097920E-05
  5 6 24  -4.75646880E-04
  5 6 26      -0.00133181
  5 6 27      -0.01306443
  5 6 29  -6.34195840E-05
  5 6 38      -0.00161720
  5 7 23  -3.17097920E-04
  5 7 26  -6.02486048E-04
  5 7 27      -0.00329782
  5 7 28  -3.80517504E-04
  5 7 30  -6.34195840E-05
  5 7 34      -0.00551750
  5 7 36  -3.17097920E-05
  5 7 37  -1.58548960E-04
  5 8 27  -6.97615424E-04
  5 8 28  -9.51293760E-05
  5 8 29  -6.34195840E-05
  5 8 33      -0.00665906
  5 8 34      -0.00218798
  5 9 21  -3.17097920E-05
  5 9 24      -0.00358321
  5 9 26  -6.34195840E-05
  5 9 27  -1.90258752E-04
  5 9 32      -0.00193430
  5 9 37  -3.17097920E-04
  5 10 21      -0.00520041
  5 10 22  -3.17097920E-04
  5 10 24  -4.75646880E-04
  5 10 25  -2.53678336E-04
  5 10 26  -9.51293760E-05
  5 10 29  -6.34195840E-05
  5 11 22  -3.17097920E-05
  5 11 23  -3.17097920E-05
  5 11 24  -3.17097920E-04
  5 11 25      -0.01471334
  5 11 27  -6.34195840E-05
  5 11 31      -0.00561263
  5 12 21  -3.17097920E-05
  5 12 23      -0.00539066
  5 12 24      -0.00621512
  5 12 25  -6.34195840E-05
  5 12 26  -1.90258752E-04
  5 13 25  -3.17097920E-05
  5 13 26  -1.58548960E-04
  5 13 27  -1.58548960E-04
  5 13 28  -1.58548960E-04
  5 13 35      -0.00142694
  5 14 26  -9.51293760E-05
  5 14 27      -0.01097159
  5 14 29      -0.00938610
  5 14 31  -1.58548960E-04
  5 14 36      -0.00402714
  5 15 23  -6.34195840E-05
  5 15 24  -6.34195840E-05
  5 15 26      -0.00878361
  5 15 27  -6.97615424E-04
  5 15 36      -0.00396372
  5 16 18  -9.51293760E-05
  5 16 20  -3.17097920E-04
  5 16 21      -0.00643709
  5 16 22      -0.00304414
  5 16 23  -9.83003551E-04
  5 16 24  -3.17097920E-05
  5 16 25  -6.34195840E-05
  5 16 26      -0.01128869
  5 16 27  -3.17097920E-05
  5 17 16  -1.58548960E-04
  5 17 17  -4.75646880E-04
  5 17 18      -0.00678590
  5 17 20  -9.51293760E-05
  5 17 21      -0.01744039
  5 17 22      -0.00780061
  5 17 23      -0.00520041
  5 17 24  -6.34195840E-05
  5 17 26  -1.58548960E-04
  5 17 30  -1.26839168E-04
  5 17 31  -3.80517504E-04
  5 17 32  -7.61035008E-04
  5 17 33  -2.85388128E-04
  5 17 34  -1.58548960E-04
  5 17 35      -0.01648909
  5 17 36      -0.00989346
  5 17 37      -0.00989346
  5 18 10  -3.17097920E-05
  5 18 11  -1.26839168E-04
  5 18 12      -0.00291730
  5 18 15  -9.51293760E-05
  5 18 16  -2.85388128E-04
  5 18 17  -4.43937088E-04
  5 18 20      -0.00551750
  5 18 21  -3.17097920E-04
  5 18 22  -5.07356672E-04
  5 18 23  -2.53678336E-04
  5 18 24      -0.00329782
  5 18 25  -9.51293760E-05
  5 18 26      -0.00126839
  5 18 27      -0.01141553
  5 18 28  -1.58548960E-04
  5 18 29  -4.12227296E-04
  5 18 30  -1.58548960E-04
  5 18 31  -1.90258752E-04
  5 18 32  -1.26839168E-04
  5 18 33  -2.21968544E-04
  5 18 34  -1.58548960E-04
  5 19 11      -0.05320903
  5 19 12      -0.00599315
  5 19 15  -4.75646880E-04
  5 19 16  -2.85388128E-04
  5 19 17      -0.00298072
  5 19 19  -7.92744800E-04
  5 19 20      -0.00123668
  5 19 21  -2.21968544E-04
  5 19 22  -3.48807712E-04
  5 19 23      -0.00212456
  5 19 24  -9.51293760E-05
  5 19 25  -9.83003551E-04
  5 19 26  -1.58548960E-04
  5 19 27      -0.00221969
  5 19 28  -1.26839168E-04
  5 19 29  -7.29325216E-04
  5 19 30  -2.21968544E-04
  5 19 31  -9.51293760E-05
  5 19 32  -9.51293760E-05
  5 19 33  -2.53678336E-04
  5 19 34  -3.17097920E-05
  5 19 35  -1.26839168E-04
  5 19 37  -6.34195840E-04
  5 20 14  -1.26839168E-04
  5 20 15      -0.00466134
  5 20 16  -3.17097920E-04
  5 20 17  -3.17097920E-05
  5 20 19  -3.17097920E-05
  5 20 20  -3.17097920E-05
  5 20 21      -0.00168062
  5 20 22  -3.80517504E-04
  5 20 23      -0.00326611
  5 20 24      -0.00101471
  5 20 25  -2.21968544E-04
  5 20 26  -3.17097920E-04
  5 20 27  -7.29325216E-04
  5 20 28  -3.48807712E-04
  5 20 29      -0.00174404
  5 20 30      -0.01969178
  5 20 31  -1.58548960E-04
  5 20 33  -9.51293760E-05
  5 20 34  -1.58548960E-04
  5 20 37      -0.00247336
  5 21 9  -6.34195840E-05
  5 21 12  -3.17097920E-04
  5 21 13      -0.00554921
  5 21 16  -4.75646880E-04
  5 21 21      -0.00256849
  5 21 22  -4.43937088E-04
  5 21 23  -1.26839168E-04
  5 21 24  -3.17097920E-04
  5 21 25  -1.58548960E-04
  5 21 26      -0.00244165
  5 21 27  -3.80517504E-04
  5 21 28  -9.83003551E-04
  5 21 29  -2.53678336E-04
  5 21 31  -3.80517504E-04
  5 21 34      -0.01252537
  5 22 10  -1.58548960E-04
  5 22 11  -1.58548960E-04
  5 22 12  -5.39066464E-04
  5 22 13  -1.58548960E-04
  5 22 15  -9.51293760E-05
  5 22 16  -9.51293760E-05
  5 22 17  -6.34195840E-05
  5 22 19  -1.90258752E-04
  5 22 20  -3.17097920E-05
  5 22 21  -3.80517504E-04
  5 22 22      -0.01763064
  5 22 23  -3.48807712E-04
  5 22 24  -3.80517504E-04
  5 22 25  -2.21968544E-04
  5 22 26  -9.51293760E-05
  5 22 27  -2.53678336E-04
  5 22 28  -6.34195840E-05
  5 22 29  -6.34195840E-05
  5 22 30      -0.00995687
  5 22 32  -6.34195840E-05
  5 22 34      -0.00846651
  5 23 10      -0.00126839
  5 23 13  -3.80517504E-04
  5 23 19  -3.80517504E-04
  5 23 21  -8.56164384E-04
  5 23 22  -2.85388128E-04
  5 23 23  -1.90258752E-04
  5 23 25  -6.34195840E-05
  5 23 26  -3.80517504E-04
  5 23 27  -1.26839168E-04
  5 23 28  -3.17097920E-05
  5 23 29  -6.34195840E-05
  5 23 30      -0.00900558
  5 23 31  -2.53678336E-04
  5 23 32  -2.85388128E-04
  5 23 33  -3.17097920E-04
  5 23 34      -0.00117326
  5 23 35  -9.51293760E-05
  5 24 14      -0.01626712
  5 24 15  -6.34195840E-05
  5 24 19  -6.34195840E-05
  5 24 20  -6.34195840E-05
  5 24 21      -0.00761035
  5 24 22  -3.17097920E-04
  5 24 25  -6.34195840E-05
  5 24 30  -6.34195840E-05
  5 24 33      -0.00402714
  5 24 34  -1.58548960E-04
  5 25 14      -0.01985033
  5 25 15      -0.00177575
  5 25 21  -1.58548960E-04
  5 25 22  -9.51293760E-05
  5 25 23      -0.00104642
  5 25 24      -0.01106672
  5 25 28      -0.00903729
  5 25 29  -9.51293760E-05
  5 25 31      -0.00294901
  5 25 34  -5.39066464E-04
  5 25 35  -1.58548960E-04
  5 26 15  -1.58548960E-04
  5 26 16  -1.26839168E-04
  5 26 20      -0.00418569
  5 26 21  -9.51293760E-05
  5 26 22  -5.70776256E-04
  5 26 23  -1.58548960E-04
  5 26 28  -1.26839168E-04
  5 26 29  -1.58548960E-04
  5 26 31      -0.00475647
  5 26 32  -6.34195840E-05
  5 26 36  -6.34195840E-05
  5 27 16  -2.85388128E-04
  5 27 17  -9.51293760E-05
  5 27 18  -6.34195840E-05
  5 27 19  -2.53678336E-04
  5 27 20  -6.34195840E-05
  5 27 22  -6.34195840E-05
  5 27 23  -6.34195840E-05
  5 27 24  -9.51293760E-05
  5 27 25  -9.51293760E-05
  5 27 26  -9.51293760E-05
  5 27 27      -0.00462963
  5 27 28  -4.43937088E-04
  5 27 29  -3.80517504E-04
  5 27 33  -4.75646880E-04
  5 27 35  -1.26839168E-04
  5 27 36  -2.21968544E-04
  5 27 37  -4.12227296E-04
  5 27 38  -6.34195840E-05
  5 28 16      -0.00158549
  5 28 18      -0.00390030
  5 28 19  -1.26839168E-04
  5 28 20  -1.58548960E-04
  5 28 21  -1.58548960E-04
  5 28 23  -9.51293760E-05
  5 28 25      -0.00114155
  5 28 27      -0.00196601
  5 28 28      -0.00979833
  5 28 29  -8.87874176E-04
  5 28 30      -0.01046423
  5 28 33      -0.00564434
  5 28 34  -1.26839168E-04
  5 28 35      -0.00529554
  5 28 36  -1.26839168E-04
  5 29 22  -4.75646880E-04
  5 29 26  -6.34195840E-05
  5 29 28  -1.26839168E-04
  5 29 29      -0.01360350
  5 29 30      -0.03307331
  5 29 31  -6.34195840E-05
  5 29 32  -1.26839168E-04
  5 29 33  -3.17097920E-04
  5 29 38  -1.26839168E-04
  5 30 18  -3.48807712E-04
  5 30 20  -4.12227296E-04
  5 30 25  -6.34195840E-05
  5 30 28  -1.26839168E-04
  5 30 31      -0.01002029
  5 30 33      -0.01382547
  5 30 35  -6.34195840E-05
  5 31 16      -0.01556951
  5 31 17  -1.58548960E-04
  5 31 18  -6.34195840E-05
  5 31 19  -1.58548960E-04
  5 31 24  -1.26839168E-04
  5 31 25  -6.34195840E-05
  5 31 27  -1.58548960E-04
  5 31 28  -6.34195840E-05
  5 31 29  -9.51293760E-05
  5 31 30  -9.19583968E-04
  5 32 16  -6.34195840E-05
  5 32 23      -0.00532725
  5 32 27  -2.53678336E-04
  5 32 28  -1.90258752E-04
  5 32 29  -6.34195840E-05
  5 32 30  -6.34195840E-05
  5 32 35  -1.58548960E-04
  5 33 15  -6.34195840E-05
  5 33 18  -6.34195840E-05
  5 33 19  -6.34195840E-05
  5 33 24  -9.51293760E-05
  5 33 31  -1.58548960E-04
  5 34 32  -6.34195840E-05
  5 34 33  -6.34195840E-05
  5 35 29  -6.34195840E-05
  5 35 32  -6.34195840E-05
  5 35 35  -3.17097920E-05
  5 35 37  -6.34195840E-05
  5 36 28  -6.34195840E-05
  5 36 34  -1.58548960E-04
  5 36 35  -1.58548960E-04
  5 36 36  -1.26839168E-04
  5 36 38  -3.17097920E-04
END period  1

