# File generated by Flopy version 3.3.4 on 10/22/2021 at 10:24:30.
BEGIN options
  SAVE_FLOWS
END options

BEGIN dimensions
  MAXBOUND  47
END dimensions

BEGIN period  1
  2 117 6     180.00000000       0.00500000     178.50000000
  2 117 7     177.18393724       0.00500000     175.68393724
  2 116 7     175.00000000       0.00500000     173.50000000
  2 116 8     173.83246018       0.00500000     172.33246018
  2 116 9     171.91838051       0.00500000     170.41838051
  2 116 10     170.00000000       0.00500000     168.50000000
  2 116 11     165.47187242       0.00500000     163.97187242
  2 115 12     160.00000000       0.00500000     158.50000000
  2 115 13     158.20995910       0.00500000     156.70995910
  2 114 13     156.68662367       0.00500000     155.18662367
  2 114 14     155.00000000       0.00500000     153.50000000
  2 113 14     153.82564779       0.00500000     152.32564779
  2 113 15     152.30471968       0.00500000     150.80471968
  2 112 15     151.24050723       0.00500000     149.74050723
  2 112 16     150.00000000       0.00500000     148.50000000
  2 112 17     147.22620534       0.00500000     145.72620534
  2 111 17     145.00000000       0.00500000     143.50000000
  2 111 18     142.82586766       0.00500000     141.32586766
  2 110 18     141.50845673       0.00500000     140.00845673
  2 110 19     140.00000000       0.00500000     138.50000000
  2 110 20     138.03488440       0.00500000     136.53488440
  2 109 20     136.74037891       0.00500000     135.24037891
  2 109 21     135.00000000       0.00500000     133.50000000
  2 108 21     133.84853427       0.00500000     132.34853427
  2 108 22     132.61700791       0.00500000     131.11700791
  2 108 23     131.13402929       0.00500000     129.63402929
  2 107 23     130.00000000       0.00500000     128.50000000
  2 107 24     127.62103615       0.00500000     126.12103615
  2 107 25     125.00000000       0.00500000     123.50000000
  2 107 26     123.42123877       0.00500000     121.92123877
  2 106 26     122.16128682       0.00500000     120.66128682
  2 106 27     120.00000000       0.00500000     118.50000000
  2 106 28     115.00000000       0.00500000     113.50000000
  2 106 29     115.00000000       0.00500000     113.50000000
  2 106 30     113.32348991       0.00500000     111.82348991
  2 106 31     111.67151805       0.00500000     110.17151805
  2 106 32     110.00000000       0.00500000     108.50000000
  2 106 33     108.02176503       0.00500000     106.52176503
  2 105 33     106.75975264       0.00500000     105.25975264
  2 105 34     105.00000000       0.00500000     103.50000000
  2 105 35     103.35706113       0.00500000     101.85706113
  2 105 36     102.19305496       0.00500000     100.69305496
  2 104 36     101.29504168       0.00500000      99.79504168
  2 104 37     100.00000000       0.00500000      98.50000000
  2 103 37      98.27449197       0.00500000      96.77449197
  2 103 38      97.06700439       0.00500000      95.56700439
  2 102 38      95.00000000       0.00500000      93.50000000
END period  1

