# File generated by Flopy version 3.3.4 on 10/22/2021 at 10:24:24.
BEGIN options
  PRINT_OPTION  summary
  COMPLEXITY  simple
END options

