# File generated by Flopy version 3.3.4 on 10/22/2021 at 10:24:24.
BEGIN options
END options

BEGIN timing
  TDIS6  first3D_mf6.tdis
END timing

BEGIN models
  gwf6  test_3D.nam  test_3D
END models

BEGIN exchanges
END exchanges

BEGIN solutiongroup  1
  ims6  first3D_mf6.ims  test_3D
END solutiongroup  1

