# File generated by Flopy version 3.3.4 on 10/22/2021 at 10:24:29.
BEGIN options
  SAVE_FLOWS
END options

BEGIN dimensions
  MAXBOUND  129
END dimensions

BEGIN period  1
  4 140 57     125.00000000       0.00500000     123.50000000
  4 140 58     124.22075546       0.00500000     122.72075546
  2 141 58     122.74242380       0.00500000     121.24242380
  2 141 59     120.00000000       0.00500000     118.50000000
  4 140 59     118.62436093       0.00500000     117.12436093
  4 140 60     118.25448571       0.00500000     116.75448571
  2 141 60     117.21256498       0.00500000     115.71256498
  4 142 60     116.02788190       0.00500000     114.52788190
  2 142 61     115.00000000       0.00500000     113.50000000
  2 142 62     110.00000000       0.00500000     108.50000000
  2 142 63     107.15867043       0.00500000     105.65867043
  2 142 64     104.00000000       0.00500000     102.50000000
  2 142 65     102.31241484       0.00500000     100.81241484
  4 141 65     101.36004674       0.00500000      99.86004674
  2 141 66     100.00000000       0.00500000      98.50000000
  2 141 67     100.00000000       0.00500000      98.50000000
  2 141 68      95.00000000       0.00500000      93.50000000
  5 140 68      93.94933755       0.00500000      92.44933755
  2 140 69      93.12647123       0.00500000      91.62647123
  5 141 69      92.15456643       0.00500000      90.65456643
  2 140 70      91.20648015       0.00500000      89.70648015
  5 139 70      90.00000000       0.00500000      88.50000000
  2 139 71      87.22838919       0.00500000      85.72838919
  5 138 71      85.00000000       0.00500000      83.50000000
  2 138 72      83.71911857       0.00500000      82.21911857
  2 138 73      82.54212533       0.00500000      81.04212533
  5 137 73      81.65338493       0.00500000      80.15338493
  2 137 74      80.00000000       0.00500000      78.50000000
  2 138 74      79.10873162       0.00500000      77.60873162
  2 138 75      78.13064594       0.00500000      76.63064594
  2 138 76      76.42584413       0.00500000      74.92584413
  2 138 77      75.00000000       0.00500000      73.50000000
  2 137 77      69.00000000       0.00500000      67.50000000
  2 136 77      69.00000000       0.00500000      67.50000000
  2 135 77      69.00000000       0.00500000      67.50000000
  2 135 78      69.00000000       0.00500000      67.50000000
  2 134 78      66.76772892       0.00500000      65.26772892
  2 135 79      65.00000000       0.00500000      63.50000000
  4 135 80      65.00000000       0.00500000      63.50000000
  2 134 80      65.00000000       0.00500000      63.50000000
  2 133 80      60.00000000       0.00500000      58.50000000
  4 133 81      58.79270125       0.00500000      57.29270125
  2 132 81      58.56488257       0.00500000      57.06488257
  2 132 80      57.85596280       0.00500000      56.35596280
  2 131 80      56.94704925       0.00500000      55.44704925
  2 131 81      56.22334218       0.00500000      54.72334218
  2 130 81      55.00000000       0.00500000      53.50000000
  2 130 82      53.16640078       0.00500000      51.66640078
  2 129 82      51.47793614       0.00500000      49.97793614
  2 128 82      50.29813647       0.00500000      48.79813647
  2 128 83      49.00000000       0.00500000      47.50000000
  2 127 83      48.07639001       0.00500000      46.57639001
  4 127 84      47.44016787       0.00500000      45.94016787
  2 126 84      46.38492046       0.00500000      44.88492046
  2 125 84      45.30838867       0.00500000      43.80838867
  2 125 85      44.69252484       0.00500000      43.19252484
  2 124 84      44.00000000       0.00500000      42.50000000
  2 124 85      41.76565090       0.00500000      40.26565090
  2 123 85      39.00000000       0.00500000      37.50000000
  2 122 86      36.28718303       0.00500000      34.78718303
  2 121 86      35.24884695       0.00500000      33.74884695
  2 121 87      34.00000000       0.00500000      32.50000000
  2 121 88      33.39271807       0.00500000      31.89271807
  2 120 88      32.86689503       0.00500000      31.36689503
  2 120 89      31.92443083       0.00500000      30.42443083
  2 120 90      31.05021740       0.00500000      29.55021740
  2 120 91      30.18690567       0.00500000      28.68690567
  2 119 91      29.64832417       0.00500000      28.14832417
  2 119 92      29.00000000       0.00500000      27.50000000
  2 118 92      28.59856674       0.00500000      27.09856674
  2 118 93      28.17777640       0.00500000      26.67777640
  2 118 94      27.73090371       0.00500000      26.23090371
  2 117 94      27.38918992       0.00500000      25.88918992
  2 117 95      26.80051106       0.00500000      25.30051106
  2 117 96      26.19341765       0.00500000      24.69341765
  2 117 97      25.59718171       0.00500000      24.09718171
  2 117 98      25.00000000       0.00500000      23.50000000
  2 117 99      23.72565182       0.00500000      22.22565182
  2 117 100      22.42344407       0.00500000      20.92344407
  2 117 101      21.07585030       0.00500000      19.57585030
  2 117 102      19.97224495       0.00500000      18.47224495
  2 118 102      19.26171667       0.00500000      17.76171667
  2 118 103      18.18788668       0.00500000      16.68788668
  2 118 104      17.23167629       0.00500000      15.73167629
  2 119 104      16.56063337       0.00500000      15.06063337
  2 119 105      15.36460312       0.00500000      13.86460312
  2 119 106      14.00000000       0.00500000      12.50000000
  2 119 107      12.45680221       0.00500000      10.95680221
  2 118 107      10.91440327       0.00500000       9.41440327
  2 117 107      10.00000000       0.00500000       8.50000000
  2 117 108       9.44722412       0.00500000       7.94722412
  2 117 109       8.83250936       0.00500000       7.33250936
  2 116 109       8.29165935       0.00500000       6.79165935
  2 116 110       7.70793215       0.00500000       6.20793215
  2 115 110       7.26301304       0.00500000       5.76301304
  2 115 111       6.60000000       0.00500000       5.10000000
  2 115 112       5.95447695       0.00500000       4.45447695
  2 115 113       5.57692616       0.00500000       4.07692616
  2 116 113       5.19121904       0.00500000       3.69121904
  2 116 114       4.53554122       0.00500000       3.03554122
  2 116 115       3.88714160       0.00500000       2.38714160
  2 116 116       3.20000000       0.00500000       1.70000000
  2 116 117       2.99094973       0.00500000       1.49094973
  2 115 117       2.83857992       0.00500000       1.33857992
  2 115 118       2.63507094       0.00500000       1.13507094
  2 114 118       2.43564870       0.00500000       0.93564870
  2 114 119       2.26759802       0.00500000       0.76759802
  2 113 119       2.06152083       0.00500000       0.56152083
  2 113 120       1.89225500       0.00500000       0.39225500
  2 112 120       1.69037108       0.00500000       0.19037108
  2 112 121       1.51936898       0.00500000       0.01936898
  2 111 121       1.33430857       0.00500000      -0.16569143
  2 110 121       1.14648297       0.00500000      -0.35351703
  2 110 122       0.97434581       0.00500000      -0.52565419
  2 109 122       0.77175890       0.00500000      -0.72824110
  2 109 123       0.60000000       0.00500000      -0.90000000
  2 108 123       0.56738292       0.00500000      -0.93261708
  2 108 124       0.52143147       0.00500000      -0.97856853
  2 109 124       0.48409681       0.00500000      -1.01590319
  2 109 125       0.46103416       0.00500000      -1.03896584
  2 110 125       0.41998472       0.00500000      -1.08001528
  2 111 125       0.37700621       0.00500000      -1.12299379
  2 112 125       0.33453930       0.00500000      -1.16546070
  2 113 125       0.29201127       0.00500000      -1.20798873
  2 114 125       0.24928917       0.00500000      -1.25071083
  2 115 125       0.21607640       0.00500000      -1.28392360
  2 115 126       0.17963798       0.00500000      -1.32036202
  2 115 127       0.13375658       0.00500000      -1.36624342
  2 115 128       0.10000000       0.00500000      -1.40000000
END period  1

