# File generated by Flopy version 3.3.4 on 10/22/2021 at 10:24:27.
BEGIN options
  BUDGET  FILEOUT  test_3D.cbc
  HEAD  FILEOUT  test_3D.hds
END options

BEGIN period  1
  SAVE  HEAD  LAST
  SAVE  BUDGET  LAST
  PRINT  BUDGET  ALL
END period  1

