# File generated by Flopy version 3.3.4 on 10/22/2021 at 10:24:24.
BEGIN options
END options

BEGIN packages
  DIS6  test_3D.dis  dis
  IC6  test_3D.ic  ic
  OC6  test_3D.oc  oc
  NPF6  test_3D.npf  npf
  WEL6  test_3D.wel  wel
  RCH6  test_3D.rch  rch
  RCH6  irri.rch  irrig
  RCH6  p_agri.rch  p_agri
  WEL6  Corb.wel  corb
  CHD6  sea.chd  sea
  CHD6  thuir.chd  thuir
  RIV6  agly.riv  agly
  RIV6  Tet.riv  tet
  RIV6  Rea.riv  rea
  RIV6  Cant.riv  cant
  RIV6  Tech.riv  tech
  RIV6  Bol.riv  bol
END packages

