# File generated by Flopy version 3.3.4 on 10/22/2021 at 10:24:24.
BEGIN options
  XORIGIN  6.64525000E+05
  YORIGIN  6.15287500E+06
END options

BEGIN dimensions
  NLAY  5
  NROW  182
  NCOL  183
END dimensions

BEGIN griddata
  delr
    INTERNAL  FACTOR  1.0
       300.00000000     300.00000000     300.00000000     300.00000000     300.00000000     300.00000000     300.00000000     300.00000000     300.00000000     300.00000000     300.00000000     300.00000000     300.00000000     300.00000000     300.00000000     300.00000000     300.00000000     300.00000000     300.00000000     300.00000000     300.00000000     300.00000000     300.00000000     300.00000000     300.00000000     300.00000000     300.00000000     300.00000000     300.00000000     300.00000000     300.00000000     300.00000000     300.00000000     300.00000000     300.00000000     300.00000000     300.00000000     300.00000000     300.00000000     300.00000000     300.00000000     300.00000000     300.00000000     300.00000000     300.00000000     300.00000000     300.00000000     300.00000000     300.00000000     300.00000000     300.00000000     300.00000000     300.00000000     300.00000000     300.00000000     300.00000000     300.00000000     300.00000000     300.00000000     300.00000000     300.00000000     300.00000000     300.00000000     300.00000000     300.00000000     300.00000000     300.00000000     300.00000000     300.00000000     300.00000000     300.00000000     300.00000000     300.00000000     300.00000000     300.00000000     300.00000000     300.00000000     300.00000000     300.00000000     300.00000000     300.00000000     300.00000000     300.00000000     300.00000000     300.00000000     300.00000000     300.00000000     300.00000000     300.00000000     300.00000000     300.00000000     300.00000000     300.00000000     300.00000000     300.00000000     300.00000000     300.00000000     300.00000000     300.00000000     300.00000000     300.00000000     300.00000000     300.00000000     300.00000000     300.00000000     300.00000000     300.00000000     300.00000000     300.00000000     300.00000000     300.00000000     300.00000000     300.00000000     300.00000000     300.00000000     300.00000000     300.00000000     300.00000000     300.00000000     300.00000000     300.00000000     300.00000000     300.00000000     300.00000000     300.00000000     300.00000000     300.00000000     300.00000000     300.00000000     300.00000000     300.00000000     300.00000000     300.00000000     300.00000000     450.00000000     600.00000000     600.00000000     600.00000000     600.00000000     600.00000000     600.00000000     600.00000000     600.00000000     600.00000000     600.00000000     600.00000000     600.00000000     600.00000000     600.00000000     600.00000000     600.00000000     600.00000000     600.00000000     600.00000000     600.00000000     600.00000000     600.00000000     600.00000000     600.00000000     600.00000000     600.00000000     600.00000000     600.00000000     600.00000000     600.00000000     600.00000000     600.00000000     600.00000000     600.00000000     600.00000000     600.00000000     600.00000000     600.00000000     600.00000000     600.00000000     600.00000000     600.00000000     600.00000000     600.00000000     600.00000000     600.00000000     600.00000000     600.00000000
  delc
    INTERNAL  FACTOR  1.0
       300.00000000     300.00000000     300.00000000     300.00000000     300.00000000     300.00000000     300.00000000     300.00000000     300.00000000     300.00000000     300.00000000     300.00000000     300.00000000     300.00000000     300.00000000     300.00000000     300.00000000     300.00000000     300.00000000     300.00000000     300.00000000     300.00000000     300.00000000     300.00000000     300.00000000     300.00000000     300.00000000     300.00000000     300.00000000     300.00000000     300.00000000     300.00000000     300.00000000     300.00000000     300.00000000     300.00000000     300.00000000     300.00000000     300.00000000     300.00000000     300.00000000     300.00000000     300.00000000     300.00000000     300.00000000     300.00000000     300.00000000     300.00000000     300.00000000     300.00000000     300.00000000     300.00000000     300.00000000     300.00000000     300.00000000     300.00000000     300.00000000     300.00000000     300.00000000     300.00000000     300.00000000     300.00000000     300.00000000     300.00000000     300.00000000     300.00000000     300.00000000     300.00000000     300.00000000     300.00000000     300.00000000     300.00000000     300.00000000     300.00000000     300.00000000     300.00000000     300.00000000     300.00000000     300.00000000     300.00000000     300.00000000     300.00000000     300.00000000     300.00000000     300.00000000     300.00000000     300.00000000     300.00000000     300.00000000     300.00000000     300.00000000     300.00000000     300.00000000     300.00000000     300.00000000     300.00000000     300.00000000     300.00000000     300.00000000     300.00000000     300.00000000     300.00000000     300.00000000     300.00000000     300.00000000     300.00000000     300.00000000     300.00000000     300.00000000     300.00000000     300.00000000     300.00000000     300.00000000     300.00000000     300.00000000     300.00000000     300.00000000     300.00000000     300.00000000     300.00000000     300.00000000     300.00000000     300.00000000     300.00000000     300.00000000     300.00000000     300.00000000     300.00000000     300.00000000     300.00000000     300.00000000     300.00000000     300.00000000     300.00000000     300.00000000     300.00000000     300.00000000     300.00000000     300.00000000     300.00000000     300.00000000     300.00000000     300.00000000     300.00000000     300.00000000     300.00000000     300.00000000     300.00000000     300.00000000     300.00000000     300.00000000     300.00000000     300.00000000     300.00000000     300.00000000     300.00000000     300.00000000     300.00000000     300.00000000     300.00000000     300.00000000     300.00000000     300.00000000     300.00000000     300.00000000     300.00000000     300.00000000     300.00000000     300.00000000     300.00000000     300.00000000     300.00000000     300.00000000     300.00000000     300.00000000     300.00000000     300.00000000     300.00000000     300.00000000     300.00000000     300.00000000     300.00000000
  top
    INTERNAL  FACTOR  1.0
      9999.00000000    9999.00000000    9999.00000000    9999.00000000    9999.00000000    9999.00000000    9999.00000000    9999.00000000    9999.00000000    9999.00000000    9999.00000000    9999.00000000    9999.00000000    9999.00000000    9999.00000000    9999.00000000    9999.00000000    9999.00000000    9999.00000000    9999.00000000    9999.00000000    9999.00000000    9999.00000000    9999.00000000    9999.00000000    9999.00000000    9999.00000000    9999.00000000    9999.00000000    9999.00000000    9999.00000000    9999.00000000    9999.00000000    9999.00000000    9999.00000000    9999.00000000    9999.00000000    9999.00000000    9999.00000000    9999.00000000    9999.00000000    9999.00000000    9999.00000000    9999.00000000    9999.00000000    9999.00000000    9999.00000000    9999.00000000    9999.00000000    9999.00000000    9999.00000000    9999.00000000    9999.00000000    9999.00000000    9999.00000000    9999.00000000    9999.00000000    9999.00000000    9999.00000000    9999.00000000    9999.00000000    9999.00000000    9999.00000000    9999.00000000    9999.00000000    9999.00000000    9999.00000000    9999.00000000    9999.00000000    9999.00000000    9999.00000000    9999.00000000    9999.00000000    9999.00000000    9999.00000000    9999.00000000    9999.00000000    9999.00000000    9999.00000000    9999.00000000    9999.00000000    9999.00000000    9999.00000000    9999.00000000    9999.00000000    9999.00000000    9999.00000000    9999.00000000    9999.00000000    9999.00000000    9999.00000000    9999.00000000    9999.00000000    9999.00000000    9999.00000000    9999.00000000    9999.00000000    9999.00000000    9999.00000000    9999.00000000    9999.00000000    9999.00000000    9999.00000000    9999.00000000    9999.00000000    9999.00000000    9999.00000000    9999.00000000    9999.00000000    9999.00000000    9999.00000000    9999.00000000    9999.00000000    9999.00000000    9999.00000000    9999.00000000    9999.00000000    9999.00000000    9999.00000000    9999.00000000    9999.00000000    9999.00000000    9999.00000000    9999.00000000    9999.00000000    9999.00000000    9999.00000000    9999.00000000    9999.00000000    9999.00000000    9999.00000000    9999.00000000    9999.00000000    9999.00000000    9999.00000000    9999.00000000    9999.00000000    9999.00000000    9999.00000000    9999.00000000    9999.00000000    9999.00000000    9999.00000000    9999.00000000    9999.00000000    9999.00000000    9999.00000000    9999.00000000    9999.00000000    9999.00000000    9999.00000000    9999.00000000    9999.00000000    9999.00000000    9999.00000000    9999.00000000    9999.00000000    9999.00000000    9999.00000000    9999.00000000    9999.00000000    9999.00000000    9999.00000000    9999.00000000    9999.00000000    9999.00000000    9999.00000000    9999.00000000    9999.00000000    9999.00000000    9999.00000000    9999.00000000    9999.00000000    9999.00000000    9999.00000000    9999.00000000    9999.00000000    9999.00000000    9999.00000000    9999.00000000    9999.00000000    9999.00000000    9999.00000000
      9999.00000000    9999.00000000    9999.00000000    9999.00000000    9999.00000000    9999.00000000    9999.00000000    9999.00000000    9999.00000000    9999.00000000    9999.00000000    9999.00000000    9999.00000000    9999.00000000    9999.00000000    9999.00000000    9999.00000000    9999.00000000    9999.00000000    9999.00000000    9999.00000000    9999.00000000    9999.00000000    9999.00000000    9999.00000000    9999.00000000    9999.00000000    9999.00000000    9999.00000000    9999.00000000    9999.00000000    9999.00000000    9999.00000000    9999.00000000    9999.00000000    9999.00000000    9999.00000000    9999.00000000    9999.00000000    9999.00000000    9999.00000000    9999.00000000    9999.00000000    9999.00000000    9999.00000000    9999.00000000    9999.00000000    9999.00000000    9999.00000000    9999.00000000    9999.00000000    9999.00000000    9999.00000000    9999.00000000    9999.00000000    9999.00000000    9999.00000000    9999.00000000    9999.00000000    9999.00000000    9999.00000000    9999.00000000    9999.00000000    9999.00000000    9999.00000000    9999.00000000    9999.00000000    9999.00000000    9999.00000000    9999.00000000    9999.00000000    9999.00000000    9999.00000000    9999.00000000    9999.00000000    9999.00000000    9999.00000000    9999.00000000    9999.00000000    9999.00000000    9999.00000000    9999.00000000    9999.00000000    9999.00000000    9999.00000000    9999.00000000    9999.00000000    9999.00000000    9999.00000000    9999.00000000    9999.00000000    9999.00000000    9999.00000000    9999.00000000    9999.00000000    9999.00000000    9999.00000000    9999.00000000    9999.00000000    9999.00000000    9999.00000000    9999.00000000    9999.00000000    9999.00000000    9999.00000000    9999.00000000    9999.00000000    9999.00000000    9999.00000000    9999.00000000    9999.00000000    9999.00000000    9999.00000000    9999.00000000    9999.00000000    9999.00000000    9999.00000000    9999.00000000    9999.00000000    9999.00000000    9999.00000000    9999.00000000    9999.00000000    9999.00000000    9999.00000000    9999.00000000    9999.00000000    9999.00000000    9999.00000000    9999.00000000    9999.00000000    9999.00000000    9999.00000000    9999.00000000    9999.00000000    9999.00000000    9999.00000000    9999.00000000    9999.00000000    9999.00000000    9999.00000000     -35.50000000     -36.20000076     -36.90000153     -37.70000076     -38.50000000     -39.50000000     -40.29999924     -41.20000076     -42.20000076     -43.40000153     -44.29999924     -45.50000000     -46.59999847     -48.09999847     -49.70000076     -50.70000076     -52.09999847     -53.59999847     -55.40000153     -56.70000076     -58.29999924     -59.79999924     -61.70000076     -63.29999924     -64.80000305     -66.40000153     -68.09999847     -69.80000305     -71.50000000     -73.09999847     -74.30000305     -75.90000153     -76.90000153     -78.00000000     -78.69999695     -79.69999695    9999.00000000    9999.00000000    9999.00000000    9999.00000000    9999.00000000    9999.00000000
      9999.00000000    9999.00000000    9999.00000000    9999.00000000    9999.00000000    9999.00000000    9999.00000000    9999.00000000    9999.00000000    9999.00000000    9999.00000000    9999.00000000    9999.00000000    9999.00000000    9999.00000000    9999.00000000    9999.00000000    9999.00000000    9999.00000000    9999.00000000    9999.00000000    9999.00000000    9999.00000000    9999.00000000    9999.00000000    9999.00000000    9999.00000000    9999.00000000    9999.00000000    9999.00000000    9999.00000000    9999.00000000    9999.00000000    9999.00000000    9999.00000000    9999.00000000    9999.00000000    9999.00000000    9999.00000000    9999.00000000    9999.00000000    9999.00000000    9999.00000000    9999.00000000    9999.00000000    9999.00000000    9999.00000000    9999.00000000    9999.00000000    9999.00000000    9999.00000000    9999.00000000    9999.00000000    9999.00000000    9999.00000000    9999.00000000    9999.00000000    9999.00000000    9999.00000000    9999.00000000    9999.00000000    9999.00000000    9999.00000000    9999.00000000    9999.00000000    9999.00000000    9999.00000000    9999.00000000    9999.00000000    9999.00000000    9999.00000000    9999.00000000    9999.00000000    9999.00000000    9999.00000000    9999.00000000    9999.00000000    9999.00000000    9999.00000000    9999.00000000    9999.00000000    9999.00000000    9999.00000000    9999.00000000    9999.00000000    9999.00000000    9999.00000000    9999.00000000    9999.00000000    9999.00000000    9999.00000000    9999.00000000    9999.00000000    9999.00000000    9999.00000000    9999.00000000    9999.00000000    9999.00000000    9999.00000000    9999.00000000    9999.00000000    9999.00000000    9999.00000000    9999.00000000    9999.00000000    9999.00000000    9999.00000000    9999.00000000    9999.00000000    9999.00000000    9999.00000000    9999.00000000    9999.00000000    9999.00000000    9999.00000000    9999.00000000    9999.00000000    9999.00000000    9999.00000000    9999.00000000    9999.00000000    9999.00000000    9999.00000000    9999.00000000    9999.00000000    9999.00000000    9999.00000000    9999.00000000    9999.00000000    9999.00000000    9999.00000000    9999.00000000    9999.00000000    9999.00000000    9999.00000000    9999.00000000    9999.00000000    9999.00000000    9999.00000000     -33.79999924     -34.70000076     -35.70000076     -36.29999924     -37.00000000     -37.79999924     -38.79999924     -39.70000076     -40.50000000     -41.40000153     -42.50000000     -43.79999924     -44.50000000     -45.70000076     -47.00000000     -48.50000000     -49.79999924     -50.90000153     -52.29999924     -54.29999924     -55.90000153     -57.00000000     -58.59999847     -60.00000000     -62.00000000     -63.70000076     -65.19999695     -66.80000305     -68.59999847     -70.19999695     -71.80000305     -73.40000153     -74.80000305     -76.09999847     -77.19999695     -78.09999847     -79.09999847     -80.19999695    9999.00000000    9999.00000000    9999.00000000    9999.00000000    9999.00000000    9999.00000000
      9999.00000000    9999.00000000    9999.00000000    9999.00000000    9999.00000000    9999.00000000    9999.00000000    9999.00000000    9999.00000000    9999.00000000    9999.00000000    9999.00000000    9999.00000000    9999.00000000    9999.00000000    9999.00000000    9999.00000000    9999.00000000    9999.00000000    9999.00000000    9999.00000000    9999.00000000    9999.00000000    9999.00000000    9999.00000000    9999.00000000    9999.00000000    9999.00000000    9999.00000000    9999.00000000    9999.00000000    9999.00000000    9999.00000000    9999.00000000    9999.00000000    9999.00000000    9999.00000000    9999.00000000    9999.00000000    9999.00000000    9999.00000000    9999.00000000    9999.00000000    9999.00000000    9999.00000000    9999.00000000    9999.00000000    9999.00000000    9999.00000000    9999.00000000    9999.00000000    9999.00000000    9999.00000000    9999.00000000    9999.00000000    9999.00000000    9999.00000000    9999.00000000    9999.00000000    9999.00000000    9999.00000000    9999.00000000    9999.00000000    9999.00000000    9999.00000000    9999.00000000    9999.00000000    9999.00000000    9999.00000000    9999.00000000    9999.00000000    9999.00000000    9999.00000000    9999.00000000    9999.00000000    9999.00000000    9999.00000000    9999.00000000    9999.00000000    9999.00000000    9999.00000000    9999.00000000    9999.00000000    9999.00000000    9999.00000000    9999.00000000    9999.00000000    9999.00000000    9999.00000000    9999.00000000    9999.00000000    9999.00000000    9999.00000000    9999.00000000    9999.00000000    9999.00000000    9999.00000000    9999.00000000    9999.00000000    9999.00000000    9999.00000000    9999.00000000    9999.00000000    9999.00000000    9999.00000000    9999.00000000    9999.00000000    9999.00000000    9999.00000000    9999.00000000    9999.00000000    9999.00000000    9999.00000000    9999.00000000    9999.00000000    9999.00000000    9999.00000000    9999.00000000    9999.00000000    9999.00000000    9999.00000000    9999.00000000    9999.00000000    9999.00000000    9999.00000000    9999.00000000    9999.00000000    9999.00000000    9999.00000000    9999.00000000    9999.00000000    9999.00000000    9999.00000000    9999.00000000    9999.00000000    9999.00000000    9999.00000000    9999.00000000    9999.00000000     -33.90000153     -34.90000153     -35.70000076     -36.50000000     -37.20000076     -38.00000000     -38.90000153     -39.90000153     -40.70000076     -41.70000076     -42.70000076     -43.90000153     -44.79999924     -45.90000153     -47.09999847     -48.90000153     -50.00000000     -51.20000076     -52.59999847     -54.20000076     -56.09999847     -57.40000153     -59.00000000     -60.29999924     -62.59999847     -63.90000153     -65.40000153     -67.00000000     -68.90000153     -70.59999847     -72.09999847     -73.59999847     -74.69999695     -76.40000153     -77.40000153     -78.40000153     -79.50000000     -80.50000000    9999.00000000    9999.00000000    9999.00000000    9999.00000000    9999.00000000    9999.00000000
      9999.00000000    9999.00000000    9999.00000000    9999.00000000    9999.00000000    9999.00000000    9999.00000000    9999.00000000    9999.00000000    9999.00000000    9999.00000000    9999.00000000    9999.00000000    9999.00000000    9999.00000000    9999.00000000    9999.00000000    9999.00000000    9999.00000000    9999.00000000    9999.00000000    9999.00000000    9999.00000000    9999.00000000    9999.00000000    9999.00000000    9999.00000000    9999.00000000    9999.00000000    9999.00000000    9999.00000000    9999.00000000    9999.00000000    9999.00000000    9999.00000000    9999.00000000    9999.00000000    9999.00000000    9999.00000000    9999.00000000    9999.00000000    9999.00000000    9999.00000000    9999.00000000    9999.00000000    9999.00000000    9999.00000000    9999.00000000    9999.00000000    9999.00000000    9999.00000000    9999.00000000    9999.00000000    9999.00000000    9999.00000000    9999.00000000    9999.00000000    9999.00000000    9999.00000000    9999.00000000    9999.00000000    9999.00000000    9999.00000000    9999.00000000    9999.00000000    9999.00000000    9999.00000000    9999.00000000    9999.00000000    9999.00000000    9999.00000000    9999.00000000    9999.00000000    9999.00000000    9999.00000000    9999.00000000    9999.00000000    9999.00000000    9999.00000000    9999.00000000    9999.00000000    9999.00000000    9999.00000000    9999.00000000    9999.00000000    9999.00000000    9999.00000000    9999.00000000    9999.00000000    9999.00000000    9999.00000000    9999.00000000    9999.00000000    9999.00000000    9999.00000000    9999.00000000    9999.00000000    9999.00000000    9999.00000000    9999.00000000    9999.00000000    9999.00000000    9999.00000000    9999.00000000    9999.00000000    9999.00000000    9999.00000000    9999.00000000    9999.00000000    9999.00000000    9999.00000000    9999.00000000    9999.00000000    9999.00000000    9999.00000000    9999.00000000    9999.00000000    9999.00000000    9999.00000000    9999.00000000    9999.00000000    9999.00000000    9999.00000000    9999.00000000    9999.00000000    9999.00000000    9999.00000000    9999.00000000    9999.00000000    9999.00000000    9999.00000000    9999.00000000    9999.00000000    9999.00000000    9999.00000000    9999.00000000    9999.00000000    9999.00000000     -32.20000076     -34.09999847     -35.00000000     -35.79999924     -36.70000076     -37.29999924     -38.09999847     -39.00000000     -40.09999847     -40.79999924     -42.00000000     -42.79999924     -43.90000153     -45.00000000     -46.20000076     -47.40000153     -49.20000076     -50.40000153     -51.50000000     -53.29999924     -54.59999847     -56.29999924     -57.90000153     -59.59999847     -60.90000153     -62.70000076     -64.40000153     -65.80000305     -67.50000000     -69.40000153     -71.00000000     -72.59999847     -74.00000000     -75.40000153     -76.69999695     -77.59999847     -78.69999695     -79.69999695     -80.69999695    9999.00000000    9999.00000000    9999.00000000    9999.00000000    9999.00000000    9999.00000000
      9999.00000000    9999.00000000    9999.00000000    9999.00000000    9999.00000000    9999.00000000    9999.00000000    9999.00000000    9999.00000000    9999.00000000    9999.00000000    9999.00000000    9999.00000000    9999.00000000    9999.00000000    9999.00000000    9999.00000000    9999.00000000    9999.00000000    9999.00000000    9999.00000000    9999.00000000    9999.00000000    9999.00000000    9999.00000000    9999.00000000    9999.00000000    9999.00000000    9999.00000000    9999.00000000    9999.00000000    9999.00000000    9999.00000000    9999.00000000    9999.00000000    9999.00000000    9999.00000000    9999.00000000    9999.00000000    9999.00000000    9999.00000000    9999.00000000    9999.00000000    9999.00000000    9999.00000000    9999.00000000    9999.00000000    9999.00000000    9999.00000000    9999.00000000    9999.00000000    9999.00000000    9999.00000000    9999.00000000    9999.00000000    9999.00000000    9999.00000000    9999.00000000    9999.00000000    9999.00000000    9999.00000000    9999.00000000    9999.00000000    9999.00000000    9999.00000000    9999.00000000    9999.00000000    9999.00000000    9999.00000000    9999.00000000    9999.00000000    9999.00000000    9999.00000000    9999.00000000    9999.00000000    9999.00000000    9999.00000000    9999.00000000    9999.00000000    9999.00000000    9999.00000000    9999.00000000    9999.00000000    9999.00000000    9999.00000000    9999.00000000    9999.00000000    9999.00000000    9999.00000000    9999.00000000    9999.00000000    9999.00000000    9999.00000000    9999.00000000    9999.00000000    9999.00000000    9999.00000000    9999.00000000    9999.00000000    9999.00000000    9999.00000000    9999.00000000    9999.00000000    9999.00000000    9999.00000000    9999.00000000    9999.00000000    9999.00000000    9999.00000000    9999.00000000    9999.00000000    9999.00000000    9999.00000000    9999.00000000    9999.00000000    9999.00000000    9999.00000000    9999.00000000    9999.00000000    9999.00000000    9999.00000000    9999.00000000    9999.00000000    9999.00000000    9999.00000000    9999.00000000    9999.00000000    9999.00000000    9999.00000000    9999.00000000    9999.00000000    9999.00000000    9999.00000000    9999.00000000    9999.00000000    9999.00000000    9999.00000000    9999.00000000     -32.29999924     -34.29999924     -35.29999924     -36.09999847     -36.90000153     -37.50000000     -38.29999924     -39.00000000     -40.09999847     -40.90000153     -42.00000000     -42.79999924     -44.20000076     -45.20000076     -46.29999924     -47.70000076     -49.40000153     -50.50000000     -52.00000000     -53.50000000     -55.00000000     -56.50000000     -58.29999924     -59.90000153     -61.29999924     -63.50000000     -64.69999695     -66.40000153     -68.09999847     -69.90000153     -71.40000153     -73.00000000     -74.50000000     -75.69999695     -76.90000153     -77.90000153     -78.90000153     -79.80000305     -80.90000153    9999.00000000    9999.00000000    9999.00000000    9999.00000000    9999.00000000    9999.00000000
      9999.00000000    9999.00000000    9999.00000000    9999.00000000    9999.00000000    9999.00000000    9999.00000000    9999.00000000    9999.00000000    9999.00000000    9999.00000000    9999.00000000    9999.00000000    9999.00000000    9999.00000000    9999.00000000    9999.00000000    9999.00000000    9999.00000000    9999.00000000    9999.00000000    9999.00000000    9999.00000000    9999.00000000    9999.00000000    9999.00000000    9999.00000000    9999.00000000    9999.00000000    9999.00000000    9999.00000000    9999.00000000    9999.00000000    9999.00000000    9999.00000000    9999.00000000    9999.00000000    9999.00000000    9999.00000000    9999.00000000    9999.00000000    9999.00000000    9999.00000000    9999.00000000    9999.00000000    9999.00000000    9999.00000000    9999.00000000    9999.00000000    9999.00000000    9999.00000000    9999.00000000    9999.00000000    9999.00000000    9999.00000000    9999.00000000    9999.00000000    9999.00000000    9999.00000000    9999.00000000    9999.00000000    9999.00000000    9999.00000000    9999.00000000    9999.00000000    9999.00000000    9999.00000000    9999.00000000    9999.00000000    9999.00000000    9999.00000000    9999.00000000    9999.00000000    9999.00000000    9999.00000000    9999.00000000    9999.00000000    9999.00000000    9999.00000000    9999.00000000    9999.00000000    9999.00000000    9999.00000000    9999.00000000    9999.00000000    9999.00000000    9999.00000000    9999.00000000    9999.00000000    9999.00000000    9999.00000000    9999.00000000    9999.00000000    9999.00000000    9999.00000000    9999.00000000    9999.00000000    9999.00000000    9999.00000000    9999.00000000    9999.00000000    9999.00000000    9999.00000000    9999.00000000    9999.00000000    9999.00000000    9999.00000000    9999.00000000    9999.00000000    9999.00000000    9999.00000000    9999.00000000    9999.00000000    9999.00000000    9999.00000000    9999.00000000    9999.00000000    9999.00000000    9999.00000000    9999.00000000    9999.00000000    9999.00000000    9999.00000000    9999.00000000    9999.00000000    9999.00000000    9999.00000000    9999.00000000    9999.00000000    9999.00000000    9999.00000000    9999.00000000    9999.00000000    9999.00000000    9999.00000000    9999.00000000    9999.00000000    9999.00000000     -32.40000153     -34.40000153     -35.29999924     -36.20000076     -37.00000000     -37.70000076     -38.40000153     -39.20000076     -40.29999924     -41.00000000     -42.20000076     -42.79999924     -44.20000076     -45.20000076     -46.29999924     -47.59999847     -49.50000000     -50.70000076     -52.09999847     -53.79999924     -55.20000076     -56.70000076     -58.40000153     -60.09999847     -61.79999924     -63.70000076     -65.00000000     -66.59999847     -68.30000305     -69.80000305     -71.69999695     -73.19999695     -74.69999695     -75.80000305     -77.00000000     -77.90000153     -79.00000000     -79.90000153     -80.80000305    9999.00000000    9999.00000000    9999.00000000    9999.00000000    9999.00000000    9999.00000000