# File generated by Flopy version 3.3.4 on 10/22/2021 at 10:24:29.
BEGIN options
  SAVE_FLOWS
END options

BEGIN dimensions
  MAXBOUND  10115
END dimensions

BEGIN period  1
  2 12 137  3.72557007E-09
  5 13 125  3.72557007E-09
  4 13 126  3.72557007E-09
  4 13 127  3.72557007E-09
  5 14 123  3.72557007E-09
  4 14 124  3.72557007E-09
  4 14 125  3.72557007E-09
  4 14 126  3.72557007E-09
  4 14 127  3.72557007E-09
  4 14 128  3.72557007E-09
  4 14 129  3.72557007E-09
  4 15 124  3.72557007E-09
  4 15 125  3.72557007E-09
  4 15 126  3.72557007E-09
  4 15 127  3.72557007E-09
  4 15 128  3.72557007E-09
  4 15 129  3.72557007E-09
  4 15 130  3.72557007E-09
  4 15 131  3.72557007E-09
  4 15 132  3.72557007E-09
  4 16 124  3.72557007E-09
  4 16 125  3.72557007E-09
  4 16 126  3.72557007E-09
  4 16 127  3.72557007E-09
  4 16 128  3.72557007E-09
  4 16 129  3.72557007E-09
  4 16 130  3.72557007E-09
  4 16 131  3.72557007E-09
  4 16 132  3.72557007E-09
  4 16 133  3.72557007E-09
  4 17 124  3.72557007E-09
  4 17 125  3.72557007E-09
  4 17 126  3.72557007E-09
  4 17 127  3.72557007E-09
  4 17 128  3.72557007E-09
  4 17 129  3.72557007E-09
  4 17 130  3.72557007E-09
  4 17 131  3.72557007E-09
  4 17 132  3.72557007E-09
  4 17 133  3.72557007E-09
  4 17 134  3.72557007E-09
  4 18 124  3.72557007E-09
  4 18 125  3.72557007E-09
  4 18 126  3.72557007E-09
  4 18 127  3.72557007E-09
  4 18 128  3.72557007E-09
  4 18 129  3.72557007E-09
  4 18 130  3.72557007E-09
  4 18 131  3.72557007E-09
  4 18 132  3.72557007E-09
  4 18 133  3.72557007E-09
  4 18 134  3.72557007E-09
  4 19 125  3.72557007E-09
  4 19 126  3.72557007E-09
  4 19 127  3.72557007E-09
  4 19 128  3.72557007E-09
  4 19 129  3.72557007E-09
  4 19 130  3.72557007E-09
  4 19 131  3.72557007E-09
  4 19 132  3.72557007E-09
  4 19 133  3.72557007E-09
  4 19 134  3.72557007E-09
  4 20 125  3.72557007E-09
  4 20 126  3.72557007E-09
  4 20 127  3.72557007E-09
  4 20 128  3.72557007E-09
  4 20 129  3.72557007E-09
  4 20 130  3.72557007E-09
  4 20 131  3.72557007E-09
  4 20 132  3.72557007E-09
  4 20 133  3.72557007E-09
  4 20 134  3.72557007E-09
  4 21 128  3.72557007E-09
  4 21 129  3.72557007E-09
  4 21 130  3.72557007E-09
  4 21 131  3.72557007E-09
  4 21 132  3.72557007E-09
  4 21 133  3.72557007E-09
  4 21 134  3.72557007E-09
  4 22 129  3.72557007E-09
  4 22 130  3.72557007E-09
  4 22 131  3.72557007E-09
  4 22 132  3.72557007E-09
  2 22 133  3.72557007E-09
  2 22 134  3.72557007E-09
  4 23 127  3.72557007E-09
  4 23 128  3.72557007E-09
  4 23 129  3.72557007E-09
  4 23 130  3.72557007E-09
  4 23 131  3.72557007E-09
  2 23 132  3.72557007E-09
  2 23 133  3.72557007E-09
  2 23 134  3.72557007E-09
  4 24 128  3.72557007E-09
  4 24 130  3.72557007E-09
  2 24 131  3.72557007E-09
  2 24 132  3.72557007E-09
  2 24 133  3.72557007E-09
  2 24 134  3.72557007E-09
  2 25 131  3.72557007E-09
  2 25 132  3.72557007E-09
  2 25 133  3.72557007E-09
  2 25 134  3.72557007E-09
  2 26 130  3.72557007E-09
  2 26 131  3.72557007E-09
  2 26 132  3.72557007E-09
  2 26 133  3.72557007E-09
  4 27 122  3.72557007E-09
  4 27 127  3.72557007E-09
  2 27 128  3.72557007E-09
  2 27 129  3.72557007E-09
  2 27 130  3.72557007E-09
  2 27 131  3.72557007E-09
  2 27 132  3.72557007E-09
  2 27 133  3.72557007E-09
  4 28 120  3.72557007E-09
  4 28 121  3.72557007E-09
  4 28 122  3.72557007E-09
  4 28 123  3.72557007E-09
  4 28 124  3.72557007E-09
  4 28 125  3.72557007E-09
  4 28 126  3.72557007E-09
  4 28 127  3.72557007E-09
  2 28 128  3.72557007E-09
  2 28 129  3.72557007E-09
  2 28 130  3.72557007E-09
  2 28 131  3.72557007E-09
  2 28 132  3.72557007E-09
  2 28 133  3.72557007E-09
  4 29 120  3.72557007E-09
  4 29 121  3.72557007E-09
  4 29 122  3.72557007E-09
  4 29 123  3.72557007E-09
  4 29 124  3.72557007E-09
  4 29 125  3.72557007E-09
  4 29 126  3.72557007E-09
  2 29 127  3.72557007E-09
  2 29 128  3.72557007E-09
  2 29 129  3.72557007E-09
  2 29 130  3.72557007E-09
  2 29 131  3.72557007E-09
  2 29 132  3.72557007E-09
  2 29 133  3.72557007E-09
  4 30 120  3.72557007E-09
  4 30 121  3.72557007E-09
  4 30 122  3.72557007E-09
  4 30 123  3.72557007E-09
  4 30 124  3.72557007E-09
  4 30 125  3.72557007E-09
  2 30 126  3.72557007E-09
  2 30 127  3.72557007E-09
  2 30 128  3.72557007E-09
  2 30 129  3.72557007E-09
  2 30 130  3.72557007E-09
  2 30 131  3.72557007E-09
  2 30 132  3.72557007E-09
  2 30 133  3.72557007E-09
  4 31 120  3.72557007E-09
  4 31 121  3.72557007E-09
  4 31 122  3.72557007E-09
  4 31 123  3.72557007E-09
  4 31 124  3.72557007E-09
  2 31 125  3.72557007E-09
  2 31 126  3.72557007E-09
  2 31 127  3.72557007E-09
  2 31 128  3.72557007E-09
  2 31 129  3.72557007E-09
  2 31 130  3.72557007E-09
  2 31 131  3.72557007E-09
  2 31 132  3.72557007E-09
  2 31 133  3.72557007E-09
  4 32 120  3.72557007E-09
  4 32 121  3.72557007E-09
  4 32 122  3.72557007E-09
  2 32 123  3.72557007E-09
  2 32 124  3.72557007E-09
  2 32 125  3.72557007E-09
  2 32 126  3.72557007E-09
  2 32 127  3.72557007E-09
  2 32 128  3.72557007E-09
  2 32 129  3.72557007E-09
  2 32 130  3.72557007E-09
  2 32 131  3.72557007E-09
  2 32 132  3.72557007E-09
  2 32 133  3.72557007E-09
  4 33 120  3.73682875E-09
  4 33 121  3.72569801E-09
  2 33 122  3.72568746E-09
  2 33 123  3.72567860E-09
  2 33 124  3.72567193E-09
  2 33 125  3.72566688E-09
  2 33 126  3.72557463E-09
  2 33 127  3.72557362E-09
  2 33 128  3.72557281E-09
  2 33 129  3.72557208E-09
  2 33 130  3.72557125E-09
  2 33 131  3.72557024E-09
  2 33 132  3.72557020E-09
  4 34 120  3.76803417E-09
  2 34 121  3.74525088E-09
  2 34 122  3.73509148E-09
  2 34 123  3.72634311E-09
  2 34 124  3.72630279E-09
  2 34 125  3.72627253E-09
  2 34 126  3.72583434E-09
  2 34 127  3.72567368E-09
  2 34 128  3.72559571E-09
  2 34 129  3.72559009E-09
  2 34 130  3.72558355E-09
  2 34 131  3.72557559E-09
  2 34 132  3.72557265E-09
  2 35 119  3.83780626E-09
  2 35 120  3.80765348E-09
  2 35 121  3.77422799E-09
  2 35 122  3.75434260E-09
  2 35 123  3.73680659E-09
  2 35 124  3.72875195E-09
  2 35 125  3.72771932E-09
  2 35 126  3.72661476E-09
  2 35 127  3.72606577E-09
  2 35 128  3.72575991E-09
  2 35 129  3.72566152E-09
  2 35 130  3.72562872E-09
  2 35 131  3.72559994E-09
  2 35 132  3.72558568E-09
  2 36 118  3.95843480E-09
  2 36 119  3.90831047E-09
  2 36 120  3.86625922E-09
  2 36 121  3.82270391E-09
  2 36 122  3.79327374E-09
  2 36 123  3.76673060E-09
  2 36 124  3.74832249E-09
  2 36 125  3.73806350E-09
  2 36 126  3.72862430E-09
  2 36 127  3.72732459E-09
  2 36 128  3.72651203E-09
  2 36 129  3.72608371E-09
  2 36 130  3.72584687E-09
  2 36 131  3.72568739E-09
  2 36 132  3.72564185E-09
  2 37 116  4.19183687E-09
  2 37 117  4.11562260E-09
  2 37 118  4.05238902E-09
  2 37 119  3.99253348E-09
  2 37 120  3.94050238E-09
  2 37 121  3.88799103E-09
  2 37 122  3.84554789E-09
  2 37 123  3.80711357E-09
  2 37 124  3.77797612E-09
  2 37 125  3.75795334E-09
  2 37 126  3.73964552E-09
  2 37 127  3.72993841E-09
  2 37 128  3.72827448E-09
  2 37 129  3.72720813E-09
  2 37 130  3.72650792E-09
  2 37 131  3.72601371E-09
  2 37 132  3.72580547E-09
  2 38 115  4.35953679E-09
  2 38 116  4.28335367E-09
  2 38 117  4.21484009E-09
  2 38 118  4.15511119E-09
  2 38 119  4.08851926E-09
  2 38 120  4.02873472E-09
  2 38 121  3.97115076E-09
  2 38 122  3.91628510E-09
  2 38 123  3.86595330E-09
  2 38 124  3.82578157E-09
  2 38 125  3.79554732E-09
  2 38 126  3.76779070E-09
  2 38 127  3.74989150E-09
  2 38 128  3.74033790E-09
  2 38 129  3.72995313E-09
  2 38 130  3.72842554E-09
  2 38 131  3.72726531E-09
  2 38 132  3.72660431E-09
  2 39 113  4.54249589E-09
  2 39 114  4.48176879E-09
  2 39 115  4.42313542E-09
  2 39 116  4.36071365E-09
  2 39 117  4.29254260E-09
  2 39 118  4.23057857E-09
  2 39 119  4.17067192E-09
  2 39 120  4.13102821E-09
  2 39 121  4.06961631E-09
  2 39 122  4.01129344E-09
  2 39 123  3.95714091E-09
  2 39 124  3.90622387E-09
  2 39 125  3.86590521E-09
  2 39 126  3.82822857E-09
  2 39 127  3.80360176E-09
  2 39 128  3.78896341E-09
  2 39 129  3.77280962E-09
  2 39 130  3.76462375E-09
  2 39 131  3.73198062E-09
  2 40 111  4.58165242E-09
  2 40 112  4.57381984E-09
  2 40 113  4.54520591E-09
  2 40 114  4.49772640E-09
  2 40 115  4.45735976E-09
  2 40 116  4.40980751E-09
  2 40 117  4.35446080E-09
  2 40 118  4.30215175E-09
  2 40 119  4.24233698E-09
  2 40 120  4.22326024E-09
  2 40 121  4.18224068E-09
  2 40 122  4.12222358E-09
  2 40 123  4.06571751E-09
  2 40 124  4.01276019E-09
  2 40 125  3.96360919E-09
  2 40 126  3.91577308E-09
  2 40 127  3.88643766E-09
  2 40 128  3.86902342E-09
  2 40 129  3.84990240E-09
  2 40 130  3.83865842E-09
  2 40 131  3.77873200E-09
  2 41 108  4.62457066E-09
  2 41 109  4.61922170E-09
  2 41 110  4.61796305E-09
  2 41 111  4.58963713E-09
  2 41 112  4.57942568E-09
  2 41 113  4.55064276E-09
  2 41 114  4.51153114E-09
  2 41 115  4.48627031E-09
  2 41 116  4.45221673E-09
  2 41 117  4.40926653E-09
  2 41 118  4.36715172E-09
  2 41 119  4.31683492E-09
  2 41 120  4.31095558E-09
  2 41 121  4.28347888E-09
  2 41 122  4.24461759E-09
  2 41 123  4.20828501E-09
  2 41 124  4.15504153E-09
  2 41 125  4.10404162E-09
  2 41 126  4.05637966E-09
  2 41 127  4.02712948E-09
  2 41 128  4.01253723E-09
  2 41 129  3.99713030E-09
  2 41 130  3.99145316E-09
  2 41 131  3.91401344E-09
  4 42 106  4.75423193E-09
  2 42 107  4.72404446E-09
  2 42 108  4.69389198E-09
  2 42 109  4.65825561E-09
  2 42 110  4.64643510E-09
  2 42 111  4.61142042E-09
  2 42 112  4.58180837E-09
  2 42 113  4.54959911E-09
  2 42 114  4.52251412E-09
  2 42 115  4.50165999E-09
  2 42 116  4.48006998E-09
  2 42 117  4.44926414E-09
  2 42 118  4.41816458E-09
  2 42 119  4.37846391E-09
  2 42 120  4.39462268E-09
  2 42 121  4.38962756E-09
  2 42 122  4.36645480E-09
  2 42 123  4.35269646E-09
  2 42 124  4.31998185E-09
  2 42 125  4.26865461E-09
  2 42 126  4.22506502E-09
  2 42 127  4.20847091E-09
  2 42 128  4.20090446E-09
  2 42 129  4.19419582E-09
  2 42 130  4.20025368E-09
  2 42 131  4.11208471E-09
  4 43 103  4.95393789E-09
  4 43 104  4.91621201E-09
  4 43 105  4.87733520E-09
  4 43 106  4.84173616E-09
  2 43 107  4.80447660E-09
  2 43 108  4.74890759E-09
  2 43 109  4.69407857E-09
  2 43 110  4.66169568E-09
  2 43 111  4.61506829E-09
  2 43 112  4.58036520E-09
  2 43 113  4.55769761E-09
  2 43 114  4.53947799E-09
  2 43 115  4.52196093E-09
  2 43 116  4.50392700E-09
  2 43 117  4.48477461E-09
  2 43 118  4.46502334E-09
  2 43 119  4.43665643E-09
  2 43 120  4.47646640E-09
  2 43 121  4.49600178E-09
  2 43 122  4.49597846E-09
  2 43 123  4.49778285E-09
  2 43 124  4.48035360E-09
  2 43 125  4.45149133E-09
  2 43 126  4.41706232E-09
  2 43 127  4.41870923E-09
  2 43 128  4.43029017E-09
  2 43 129  4.44740179E-09
  2 43 130  4.47306008E-09
  2 43 131  4.38294634E-09
  2 44 99  5.18342709E-09
  2 44 101  5.13248557E-09
  2 44 102  5.06825907E-09
  4 44 103  5.00753621E-09
  4 44 104  4.94742228E-09
  4 44 105  4.90661329E-09
  2 44 106  4.85002598E-09
  2 44 107  4.79441512E-09
  2 44 108  4.74032973E-09
  2 44 109  4.69324920E-09
  2 44 110  4.64873926E-09
  2 44 111  4.61183595E-09
  2 44 112  4.58554533E-09
  2 44 113  4.57040412E-09
  2 44 114  4.55446377E-09
  2 44 115  4.54007971E-09
  2 44 116  4.52584485E-09
  2 44 117  4.51110280E-09
  2 44 118  4.49606692E-09
  2 44 119  4.47998744E-09
  2 44 120  4.54549768E-09
  2 44 121  4.59037212E-09
  2 44 122  4.61554685E-09
  2 44 123  4.64248780E-09
  2 44 124  4.65026074E-09
  2 44 125  4.63935848E-09
  2 44 126  4.59844639E-09
  2 44 127  4.62133047E-09
  2 44 128  4.65138883E-09
  2 44 129  4.69124893E-09
  2 44 130  4.74640042E-09
  2 44 131  4.69267451E-09
  2 45 98  5.23797909E-09
  2 45 99  5.22501436E-09
  2 45 100  5.19541590E-09
  2 45 101  5.14196855E-09
  2 45 102  5.07518283E-09
  2 45 103  5.01832659E-09
  2 45 104  4.95915819E-09
  2 45 105  4.90057386E-09
  2 45 106  4.84463643E-09
  2 45 107  4.78973314E-09
  2 45 108  4.74429867E-09
  2 45 109  4.69916707E-09
  2 45 110  4.65641641E-09
  2 45 111  4.62620232E-09
  2 45 112  4.60625172E-09
  2 45 113  4.58695792E-09
  2 45 114  4.56759637E-09
  2 45 115  4.55581996E-09
  2 45 116  4.54516270E-09
  2 45 117  4.53486656E-09
  2 45 118  4.52490474E-09
  2 45 119  4.51484520E-09
  2 45 120  4.58632638E-09
  2 45 121  4.65770188E-09
  2 45 122  4.70956153E-09
  2 45 123  4.76329903E-09
  2 45 124  4.79812313E-09
  2 45 125  4.81460708E-09
  2 45 126  4.79464123E-09
  2 45 127  4.81048598E-09
  2 45 128  4.85758324E-09
  2 45 129  4.91802207E-09
  2 45 130  4.99934759E-09
  2 45 131  4.97894854E-09
  2 46 97  5.29249241E-09
  2 46 98  5.28935917E-09
  2 46 99  5.26311735E-09
  2 46 100  5.22444365E-09
  2 46 101  5.16595082E-09
  2 46 102  5.10303918E-09
  2 46 103  5.03201050E-09
  2 46 104  4.97303819E-09
  2 46 105  4.91455063E-09
  2 46 106  4.86083866E-09
  2 46 107  4.81301853E-09
  2 46 108  4.76798539E-09
  2 46 109  4.72350069E-09
  2 46 110  4.68123514E-09
  2 46 111  4.65105024E-09
  2 46 112  4.62626019E-09
  2 46 113  4.60256608E-09
  2 46 114  4.57939880E-09
  2 46 115  4.56952933E-09
  2 46 116  4.56187831E-09
  2 46 117  4.55600082E-09
  2 46 118  4.55154541E-09
  2 46 119  4.54772259E-09
  2 46 120  4.62583355E-09
  2 46 121  4.70387191E-09
  2 46 122  4.78338787E-09
  2 46 123  4.86513456E-09
  2 46 124  4.92846136E-09
  2 46 125  4.97398588E-09
  2 46 126  4.97995365E-09
  2 46 127  5.01231727E-09
  2 46 128  5.05166874E-09
  2 46 129  5.10066589E-09
  2 46 130  5.20110901E-09
  2 47 97  5.34475476E-09
  2 47 98  5.30147918E-09
  2 47 99  5.26922022E-09
  2 47 100  5.22644439E-09
  2 47 101  5.17251751E-09
  2 47 102  5.11372636E-09
  2 47 103  5.05388853E-09
  2 47 104  5.00343099E-09
  2 47 105  4.94678665E-09
  2 47 106  4.89361004E-09
  2 47 107  4.84047094E-09
  2 47 108  4.79500500E-09
  2 47 109  4.75018335E-09
  2 47 110  4.70733552E-09
  2 47 111  4.67636119E-09
  2 47 112  4.65119325E-09
  2 47 113  4.62244799E-09
  2 47 114  4.59493384E-09
  2 47 115  4.58170195E-09
  2 47 116  4.57688724E-09
  2 47 117  4.57486970E-09
  2 47 118  4.57540562E-09
  2 47 119  4.57757846E-09
  2 47 120  4.66243651E-09
  2 47 121  4.74762152E-09
  2 47 122  4.83461076E-09
  2 47 123  4.92400002E-09
  2 47 124  5.01610710E-09
  2 47 125  5.09109297E-09
  2 47 126  5.11154597E-09
  2 47 127  5.15504871E-09
  2 47 128  5.20703209E-09
  2 47 129  5.27081495E-09
  2 47 130  5.35344235E-09
  2 48 96  5.39521680E-09
  2 48 97  5.35360774E-09
  2 48 98  5.30803963E-09
  2 48 99  5.27197987E-09
  2 48 100  5.22657549E-09
  2 48 101  5.17497008E-09
  2 48 102  5.12536220E-09
  2 48 103  5.07362058E-09
  2 48 104  5.02986609E-09
  2 48 105  4.97435181E-09
  2 48 106  4.92137243E-09
  2 48 107  4.87329072E-09
  2 48 108  4.82719961E-09
  2 48 109  4.78168079E-09
  2 48 110  4.73779746E-09
  2 48 111  4.70566828E-09
  2 48 112  4.67538850E-09
  2 48 113  4.64189847E-09
  2 48 114  4.61007814E-09
  2 48 115  4.59315391E-09
  2 48 116  4.59063741E-09
  2 48 117  4.59182367E-09
  2 48 118  4.59644783E-09
  2 48 119  4.60378487E-09
  2 48 120  4.69493284E-09
  2 48 121  4.78695655E-09
  2 48 122  4.88118005E-09
  2 48 123  4.97809111E-09
  2 48 124  5.07806949E-09
  2 48 125  5.18213054E-09
  2 48 126  5.21602149E-09
  2 48 127  5.26834658E-09
  2 48 128  5.33018527E-09
  2 48 129  5.40542095E-09
  2 48 130  5.50166882E-09
  2 49 96  5.40385975E-09
  2 49 97  5.36067316E-09
  2 49 98  5.31756042E-09
  2 49 99  5.28180944E-09
  2 49 100  5.23654548E-09
  2 49 101  5.18994605E-09
  2 49 102  5.14631210E-09
  2 49 103  5.10034397E-09
  2 49 104  5.06179769E-09
  2 49 105  5.00647202E-09
  2 49 106  4.95796099E-09
  2 49 107  4.90914474E-09
  2 49 108  4.86178945E-09
  2 49 109  4.81592999E-09
  2 49 110  4.77171490E-09
  2 49 111  4.73450461E-09
  2 49 112  4.69937652E-09
  2 49 113  4.66129508E-09
  2 49 114  4.62507258E-09
  2 49 115  4.60405995E-09
  2 49 116  4.60312892E-09
  2 49 117  4.60661482E-09
  2 49 118  4.61434714E-09
  2 49 119  4.62591573E-09
  2 49 120  4.72257755E-09
  2 49 121  4.82075420E-09
  2 49 122  4.92145897E-09
  2 49 123  5.02513311E-09
  2 49 124  5.13218370E-09
  2 49 125  5.24362875E-09
  2 49 126  5.28825136E-09
  2 49 127  5.34646092E-09
  2 49 128  5.41467438E-09
  2 49 129  5.49702089E-09
  2 49 130  5.60126313E-09
  2 50 95  5.45741398E-09
  2 50 96  5.41455026E-09
  2 50 97  5.37248104E-09
  2 50 98  5.32974832E-09
  2 50 99  5.29331124E-09
  2 50 100  5.25249867E-09
  2 50 101  5.21116383E-09
  2 50 102  5.17240402E-09
  2 50 103  5.13134112E-09
  2 50 104  5.09749836E-09
  2 50 105  5.04303316E-09
  2 50 106  4.99380480E-09
  2 50 107  4.94557530E-09
  2 50 108  4.89340076E-09
  2 50 109  4.84235213E-09
  2 50 110  4.79764386E-09
  2 50 111  4.75514835E-09
  2 50 112  4.71478118E-09
  2 50 113  4.67655532E-09
  2 50 114  4.64039991E-09
  2 50 115  4.61473437E-09
  2 50 116  4.61456493E-09
  2 50 117  4.61948913E-09
  2 50 118  4.62942216E-09
  2 50 119  4.64422088E-09
  2 50 120  4.74531774E-09
  2 50 121  4.84876621E-09
  2 50 122  4.95496207E-09
  2 50 123  5.06432549E-09
  2 50 124  5.17725714E-09
  2 50 125  5.27388762E-09
  2 50 126  5.32507424E-09
  2 50 127  5.38570069E-09
  2 50 128  5.45615770E-09
  2 50 129  5.54053381E-09
  2 50 130  5.64625964E-09
  2 51 92  5.56134529E-09
  2 51 93  5.53670786E-09
  2 51 94  5.51095162E-09
  2 51 95  5.46577886E-09
  2 51 96  5.42417299E-09
  2 51 97  5.38268221E-09
  2 51 98  5.34087339E-09
  2 51 99  5.30473293E-09
  2 51 100  5.26920623E-09
  2 51 101  5.23270115E-09
  2 51 102  5.19361122E-09
  2 51 103  5.15221799E-09
  2 51 104  5.12389154E-09
  2 51 105  5.07015281E-09
  2 51 106  5.01659362E-09
  2 51 107  4.96368875E-09
  2 51 108  4.91142563E-09
  2 51 109  4.86002111E-09
  2 51 110  4.81458433E-09
  2 51 111  4.77140091E-09
  2 51 112  4.73044629E-09
  2 51 113  4.69177602E-09
  2 51 114  4.65543441E-09
  2 51 115  4.62486694E-09
  2 51 116  4.62505311E-09
  2 51 117  4.63089211E-09
  2 51 118  4.64238079E-09
  2 51 119  4.65955369E-09
  2 51 120  4.76384703E-09
  2 51 121  4.87126175E-09
  2 51 122  4.98173711E-09
  2 51 123  5.09547511E-09
  2 51 124  5.21283805E-09
  2 51 125  5.29301826E-09
  2 51 126  5.34782463E-09
  2 51 127  5.40966392E-09
  2 51 128  5.48109639E-09
  2 51 129  5.56614087E-09
  2 51 130  5.67184087E-09
  2 52 86  5.42024870E-09
  2 52 87  5.43806199E-09
  2 52 88  5.44842699E-09
  2 52 91  5.47212364E-09
  2 52 92  5.47296274E-09
  2 52 93  5.46331673E-09
  2 52 94  5.44832150E-09
  2 52 95  5.41213069E-09
  2 52 96  5.37762115E-09
  2 52 97  5.34330886E-09
  2 52 98  5.30730499E-09
  2 52 99  5.27607599E-09
  2 52 100  5.24470738E-09
  2 52 101  5.21166722E-09
  2 52 102  5.17524843E-09
  2 52 103  5.13709255E-09
  2 52 104  5.10987249E-09
  2 52 105  5.05726430E-09
  2 52 106  5.00467720E-09
  2 52 107  4.95240851E-09
  2 52 108  4.90044411E-09
  2 52 109  4.84896021E-09
  2 52 110  4.79799915E-09
  2 52 111  4.75427275E-09
  2 52 112  4.71285820E-09
  2 52 113  4.67389274E-09
  2 52 114  4.63939349E-09
  2 52 115  4.61571718E-09
  2 52 116  4.61815532E-09
  2 52 117  4.62663268E-09
  2 52 118  4.64118331E-09
  2 52 119  4.66201624E-09
  2 52 120  4.77037994E-09
  2 52 121  4.88241637E-09
  2 52 122  4.99771187E-09
  2 52 123  5.11645634E-09
  2 52 124  5.23900796E-09
  2 52 125  5.30145546E-09
  2 52 126  5.35586820E-09
  2 52 127  5.41687899E-09
  2 52 128  5.48685983E-09
  2 52 129  5.56953858E-09
  2 52 130  5.67115111E-09
  2 53 87  5.35759859E-09
  2 53 88  5.39756870E-09
  2 53 89  5.43275459E-09
  2 53 90  5.43640090E-09
  2 53 91  5.43710020E-09
  2 53 92  5.43810440E-09
  2 53 93  5.41505724E-09
  2 53 94  5.38675100E-09
  2 53 95  5.35898500E-09
  2 53 96  5.33156959E-09
  2 53 97  5.30297745E-09
  2 53 98  5.27166867E-09
  2 53 99  5.24458714E-09
  2 53 100  5.21694101E-09
  2 53 101  5.18700047E-09
  2 53 102  5.15293562E-09
  2 53 103  5.11843562E-09
  2 53 104  5.08736472E-09
  2 53 105  5.03577483E-09
  2 53 106  4.98398401E-09
  2 53 107  4.93218566E-09
  2 53 108  4.88040669E-09
  2 53 109  4.82884263E-09
  2 53 110  4.77755419E-09
  2 53 111  4.73351589E-09
  2 53 112  4.69186214E-09
  2 53 113  4.65276024E-09
  2 53 114  4.61832981E-09
  2 53 115  4.59973223E-09
  2 53 116  4.60257195E-09
  2 53 117  4.61179611E-09
  2 53 118  4.62747856E-09
  2 53 119  4.64978988E-09
  2 53 120  4.76300698E-09
  2 53 121  4.88026193E-09
  2 53 122  5.00090052E-09
  2 53 123  5.12508806E-09
  2 53 124  5.25315872E-09
  2 53 125  5.31187648E-09
  2 53 126  5.36913239E-09
  2 53 127  5.43339373E-09
  2 53 128  5.50720078E-09
  2 53 129  5.59457288E-09
  2 53 130  5.70227747E-09
  2 54 88  5.35756460E-09
  2 54 89  5.36106884E-09
  2 54 90  5.36408128E-09
  2 54 91  5.36555732E-09
  2 54 92  5.36737118E-09
  2 54 93  5.34960674E-09
  2 54 94  5.32786946E-09
  2 54 95  5.30642819E-09
  2 54 96  5.28459061E-09
  2 54 97  5.26055435E-09
  2 54 98  5.23298892E-09
  2 54 99  5.20921130E-09
  2 54 100  5.18455368E-09
  2 54 101  5.15701464E-09
  2 54 102  5.12672660E-09
  2 54 103  5.09584237E-09
  2 54 104  5.06083543E-09
  2 54 105  5.01012504E-09
  2 54 106  4.95895111E-09
  2 54 107  4.90748186E-09
  2 54 108  4.85582866E-09
  2 54 109  4.80419745E-09
  2 54 110  4.75275520E-09
  2 54 111  4.70856637E-09
  2 54 112  4.66681235E-09
  2 54 113  4.62772875E-09
  2 54 114  4.59348649E-09
  2 54 115  4.58007090E-09
  2 54 116  4.58339563E-09
  2 54 117  4.59342678E-09
  2 54 118  4.61024315E-09
  2 54 119  4.63397615E-09
  2 54 120  4.75168123E-09
  2 54 121  4.87362536E-09
  2 54 122  4.99904224E-09
  2 54 123  5.12807339E-09
  2 54 124  5.26102723E-09
  2 54 125  5.31540108E-09
  2 54 126  5.37519232E-09
  2 54 127  5.44235390E-09
  2 54 128  5.51958512E-09
  2 54 129  5.61118408E-09
  2 54 130  5.72443701E-09
  2 55 80  5.18102505E-09
  2 55 82  5.22746564E-09
  2 55 83  5.24167350E-09
  2 55 84  5.24610888E-09
  2 55 85  5.25033168E-09
  2 55 88  5.28602076E-09
  2 55 89  5.29247197E-09
  2 55 90  5.29869261E-09
  2 55 91  5.30260577E-09
  2 55 92  5.30290704E-09
  2 55 93  5.28771239E-09
  2 55 94  5.27072511E-09
  2 55 95  5.25409623E-09
  2 55 96  5.23662170E-09
  2 55 97  5.21617842E-09
  2 55 98  5.19158190E-09
  2 55 99  5.17038200E-09
  2 55 100  5.14807359E-09
  2 55 101  5.12229014E-09
  2 55 102  5.09570712E-09
  2 55 103  5.06833507E-09
  2 55 104  5.02928562E-09
  2 55 105  4.97933013E-09
  2 55 106  4.92866994E-09
  2 55 107  4.87749189E-09
  2 55 108  4.82598309E-09
  2 55 109  4.77436016E-09
  2 55 110  4.72299319E-09
  2 55 111  4.67887107E-09
  2 55 112  4.63725616E-09
  2 55 113  4.59840741E-09
  2 55 114  4.56453680E-09
  2 55 115  4.55647682E-09
  2 55 116  4.56044616E-09
  2 55 117  4.57138862E-09
  2 55 118  4.58938699E-09
  2 55 119  4.61453218E-09
  2 55 120  4.73657930E-09
  2 55 121  4.86291966E-09
  2 55 122  4.99280259E-09
  2 55 123  5.12634960E-09
  2 55 124  5.26384824E-09
  2 55 125  5.31346293E-09
  2 55 126  5.37562373E-09
  2 55 127  5.44550600E-09
  2 55 128  5.52596928E-09
  2 55 129  5.62159533E-09
  2 55 130  5.74020597E-09
  2 56 78  5.15128892E-09
  2 56 79  5.14694546E-09
  2 56 80  5.14543870E-09
  2 56 81  5.14846342E-09
  2 56 82  5.15434843E-09
  2 56 83  5.16553031E-09
  2 56 84  5.17298644E-09
  2 56 85  5.18020378E-09
  2 56 86  5.19043959E-09
  2 56 87  5.20383599E-09
  2 56 88  5.21486806E-09
  2 56 89  5.22379617E-09
  2 56 90  5.23059362E-09
  2 56 91  5.23552195E-09
  2 56 92  5.23720452E-09
  2 56 93  5.22649795E-09
  2 56 94  5.21269427E-09
  2 56 95  5.19946485E-09
  2 56 96  5.18512880E-09
  2 56 97  5.16719122E-09
  2 56 98  5.14452553E-09
  2 56 99  5.12488326E-09
  2 56 100  5.10394629E-09
  2 56 101  5.08201528E-09
  2 56 102  5.05905640E-09
  2 56 103  5.03514451E-09
  2 56 104  4.99678961E-09
  2 56 105  4.94759201E-09
  2 56 106  4.89751828E-09
  2 56 107  4.84676086E-09
  2 56 108  4.79554043E-09
  2 56 109  4.74408539E-09
  2 56 110  4.69307049E-09
  2 56 111  4.64929402E-09
  2 56 112  4.60808434E-09
  2 56 113  4.56973172E-09
  2 56 114  4.53643897E-09
  2 56 115  4.52913812E-09
  2 56 116  4.53386274E-09
  2 56 117  4.54577305E-09
  2 56 118  4.56495411E-09
  2 56 119  4.59149585E-09
  2 56 120  4.71794810E-09
  2 56 121  4.84866893E-09
  2 56 122  4.98300458E-09
  2 56 123  5.12106606E-09
  2 56 124  5.26313304E-09
  2 56 125  5.32951696E-09
  2 56 126  5.39651919E-09
  2 56 127  5.47220922E-09
  2 56 128  5.55986145E-09
  2 56 129  5.66475604E-09
  2 56 130  5.79597435E-09
  2 57 77  5.08949799E-09
  2 57 78  5.09253981E-09
  2 57 79  5.09505641E-09
  2 57 80  5.09777043E-09
  2 57 81  5.10295977E-09
  2 57 82  5.11118140E-09
  2 57 83  5.12433001E-09
  2 57 84  5.13321699E-09
  2 57 85  5.14186260E-09
  2 57 86  5.15313759E-09
  2 57 87  5.16399753E-09
  2 57 88  5.17277087E-09
  2 57 89  5.17989389E-09
  2 57 90  5.18547051E-09
  2 57 91  5.18961255E-09
  2 57 92  5.19087032E-09
  2 57 93  5.18254592E-09
  2 57 94  5.17032875E-09
  2 57 95  5.15886147E-09
  2 57 96  5.14613783E-09
  2 57 97  5.12935256E-09
  2 57 98  5.11109200E-09
  2 57 99  5.09304995E-09
  2 57 100  5.07365206E-09
  2 57 101  5.05302309E-09
  2 57 102  5.03115608E-09
  2 57 103  5.00814951E-09
  2 57 104  4.96575303E-09
  2 57 105  4.91729557E-09
  2 57 106  4.86782990E-09
  2 57 107  4.81755224E-09
  2 57 108  4.76667583E-09
  2 57 109  4.71544090E-09
  2 57 110  4.66971585E-09
  2 57 111  4.62625600E-09
  2 57 112  4.58538192E-09
  2 57 113  4.54740952E-09
  2 57 114  4.51456611E-09
  2 57 115  4.50790004E-09
  2 57 116  4.51345968E-09
  2 57 117  4.52641139E-09
  2 57 118  4.54684281E-09
  2 57 119  4.57484364E-09
  2 57 120  4.70412420E-09
  2 57 121  4.83759996E-09
  2 57 122  4.97478338E-09
  2 57 123  5.11579143E-09
  2 57 124  5.26091946E-09
  2 57 125  5.34480787E-09
  2 57 126  5.41696466E-09
  2 57 127  5.49888564E-09
  2 57 128  5.59431782E-09
  2 57 129  5.70933833E-09
  2 57 130  5.85447691E-09
  2 58 75  5.08585053E-09
  2 58 76  5.08658714E-09
  2 58 77  5.08971185E-09
  2 58 78  5.09289137E-09
  2 58 79  5.09569822E-09
  2 58 80  5.09875435E-09
  2 58 81  5.10052071E-09
  2 58 82  5.10522828E-09
  2 58 83  5.11485610E-09
  2 58 84  5.12409163E-09
  2 58 85  5.13311450E-09
  2 58 86  5.14144111E-09
  2 58 87  5.14978955E-09
  2 58 88  5.15627507E-09
  2 58 89  5.16132600E-09
  2 58 90  5.16518657E-09
  2 58 91  5.16788786E-09
  2 58 92  5.17003458E-09
  2 58 93  5.16278079E-09
  2 58 94  5.15150408E-09
  2 58 95  5.13863672E-09
  2 58 96  5.12438255E-09
  2 58 97  5.10874098E-09
  2 58 98  5.09174797E-09
  2 58 99  5.07483875E-09
  2 58 100  5.05658662E-09
  2 58 101  5.03694593E-09
  2 58 102  5.01592441E-09
  2 58 103  4.99362502E-09
  2 58 104  4.95178650E-09
  2 58 105  4.90381654E-09
  2 58 106  4.85473620E-09
  2 58 107  4.80474079E-09
  2 58 108  4.75402991E-09
  2 58 109  4.70284452E-09
  2 58 110  4.65743080E-09
  2 58 111  4.61427234E-09
  2 58 112  4.57371012E-09
  2 58 113  4.53608199E-09
  2 58 114  4.50172536E-09
  2 58 115  4.49370398E-09
  2 58 116  4.49802844E-09
  2 58 117  4.50991097E-09
  2 58 118  4.52944132E-09
  2 58 119  4.55670916E-09
  2 58 120  4.69074516E-09
  2 58 121  4.82903293E-09
  2 58 122  4.97122534E-09
  2 58 123  5.11746598E-09
  2 58 124  5.26809598E-09
  2 58 125  5.37102021E-09
  2 58 126  5.44591574E-09
  2 58 127  5.53107551E-09
  2 58 128  5.63049168E-09
  2 58 129  5.75067541E-09
  2 59 74  5.08356601E-09
  2 59 75  5.08614398E-09
  2 59 76  5.08694757E-09
  2 59 77  5.08985137E-09
  2 59 78  5.09302916E-09
  2 59 79  5.09597489E-09
  2 59 80  5.09918076E-09
  2 59 81  5.10129802E-09
  2 59 82  5.10365521E-09
  2 59 83  5.11036396E-09
  2 59 84  5.11664585E-09
  2 59 85  5.12295225E-09
  2 59 86  5.12870915E-09
  2 59 87  5.13478381E-09
  2 59 88  5.13923350E-09
  2 59 89  5.14250626E-09
  2 59 90  5.14478590E-09
  2 59 91  5.14605425E-09
  2 59 92  5.14708144E-09
  2 59 93  5.14037184E-09
  2 59 94  5.12964205E-09
  2 59 95  5.11766752E-09
  2 59 96  5.10440997E-09
  2 59 97  5.08987635E-09
  2 59 98  5.07410109E-09
  2 59 99  5.05819568E-09
  2 59 100  5.04084031E-09
  2 59 101  5.02199568E-09
  2 59 102  5.00167469E-09
  2 59 103  4.97997426E-09
  2 59 104  4.93861441E-09
  2 59 105  4.89108326E-09
  2 59 106  4.84236757E-09
  2 59 107  4.79265715E-09
  2 59 108  4.74213222E-09
  2 59 109  4.69102914E-09
  2 59 110  4.64587085E-09
  2 59 111  4.60294865E-09
  2 59 112  4.56262121E-09
  2 59 113  4.52524433E-09
  2 59 114  4.49117164E-09
  2 59 115  4.48360479E-09
  2 59 116  4.48851070E-09
  2 59 117  4.50114839E-09
  2 59 118  4.52161143E-09
  2 59 119  4.54999186E-09
  2 59 120  4.68551203E-09
  2 59 121  4.82535085E-09
  2 59 122  4.96926277E-09
  2 59 123  5.11742057E-09
  2 59 124  5.27021524E-09
  2 59 125  5.37125784E-09
  2 59 126  5.44766058E-09
  2 59 127  5.53457045E-09
  2 59 128  5.63612234E-09
  2 59 129  5.75909776E-09
  2 60 75  5.08652529E-09
  2 60 76  5.08739344E-09
  2 60 77  5.09015782E-09
  2 60 78  5.09320052E-09
  2 60 79  5.09605114E-09
  2 60 80  5.09933018E-09
  2 60 81  5.10161480E-09
  2 60 82  5.10415747E-09
  2 60 83  5.10851774E-09
  2 60 84  5.11259505E-09
  2 60 85  5.11678999E-09
  2 60 86  5.12049315E-09
  2 60 87  5.12463803E-09
  2 60 88  5.12731459E-09
  2 60 89  5.12896952E-09
  2 60 90  5.12974307E-09
  2 60 91  5.12958482E-09
  2 60 92  5.12939415E-09
  2 60 93  5.12155691E-09
  2 60 94  5.11132645E-09
  2 60 95  5.09993101E-09
  2 60 96  5.08734771E-09
  2 60 97  5.07358977E-09
  2 60 98  5.05868908E-09
  2 60 99  5.04353091E-09
  2 60 100  5.02686014E-09
  2 60 101  5.00864306E-09
  2 60 102  4.98889286E-09
  2 60 103  4.96293297E-09
  2 60 104  4.92193750E-09
  2 60 105  4.87475444E-09
  2 60 106  4.82633419E-09
  2 60 107  4.77685639E-09
  2 60 108  4.72649301E-09
  2 60 109  4.67551353E-09
  2 60 110  4.63057769E-09
  2 60 111  4.58786369E-09
  2 60 112  4.54774496E-09
  2 60 113  4.51059219E-09
  2 60 114  4.48153256E-09
  2 60 115  4.47440270E-09
  2 60 116  4.47984333E-09
  2 60 117  4.49316082E-09