BEGIN options
  SAVE_FLOWS
END options

BEGIN dimensions
  MAXBOUND  980
END dimensions

BEGIN period  1
  4 115 85      59.50000000       0.10000000
  4 115 86      55.50000000       0.10000000
  4 115 87      46.00000000       0.10000000
  4 115 88      43.50000000       0.10000000
  4 115 89      41.00000000       0.10000000
  2 115 90      39.00000000       0.10000000
  2 115 91      36.00000000       0.10000000
  2 115 92      35.00000000       0.10000000
  2 115 93      32.50000000       0.10000000
  2 115 94      30.00000000       0.10000000
  2 115 95      25.50000000       0.10000000
  2 115 96      26.00000000       0.10000000
  2 115 97      24.50000000       0.10000000
  2 115 98      24.50000000       0.10000000
  2 115 99      19.50000000       0.10000000
  2 115 100      20.00000000       0.10000000
  2 115 101      20.50000000       0.10000000
  2 115 102      19.00000000       0.10000000
  2 115 103      17.50000000       0.10000000
  2 115 104      16.00000000       0.10000000
  2 115 105      16.50000000       0.10000000
  2 115 106      14.00000000       0.10000000
  2 115 107      11.50000000       0.10000000
  2 115 108       8.50000000       0.10000000
  2 115 109       6.00000000       0.10000000
  2 115 110       5.50000000       0.10000000
  2 115 111       6.00000000       0.10000000
  2 115 112       5.00000000       0.10000000
  2 115 113       3.00000000       0.10000000
  2 115 114       2.50000000       0.10000000
  2 115 115       0.50000000       0.10000000
  2 115 116      -1.00000000       0.10000000
  2 115 117       0.00000000       0.10000000
  2 115 118      -0.50000000       0.10000000
  2 115 119      -2.00000000       0.10000000
  4 116 85      62.00000000       0.10000000
  4 116 86      65.50000000       0.10000000
  4 116 87      51.50000000       0.10000000
  4 116 88      49.50000000       0.10000000
  4 116 89      43.00000000       0.10000000
  2 116 90      40.00000000       0.10000000
  2 116 91      36.50000000       0.10000000
  2 116 92      35.00000000       0.10000000
  2 116 93      35.50000000       0.10000000
  2 116 94      30.50000000       0.10000000
  2 116 95      26.00000000       0.10000000
  2 116 96      24.00000000       0.10000000
  2 116 97      23.50000000       0.10000000
  2 116 98      19.00000000       0.10000000
  2 116 99      18.50000000       0.10000000
  2 116 100      17.00000000       0.10000000
  2 116 101      18.50000000       0.10000000
  2 116 102      17.50000000       0.10000000
  2 116 103      17.00000000       0.10000000
  2 116 104      17.50000000       0.10000000
  2 116 105      17.00000000       0.10000000
  2 116 106      13.00000000       0.10000000
  2 116 107      13.00000000       0.10000000
  2 116 108       9.50000000       0.10000000
  2 116 109       8.50000000       0.10000000
  2 116 110       7.00000000       0.10000000
  2 116 111       6.50000000       0.10000000
  2 116 112       6.00000000       0.10000000
  2 116 113       5.50000000       0.10000000
  2 116 114       4.00000000       0.10000000
  2 116 115       1.00000000       0.10000000
  2 116 116       0.00000000       0.10000000
  2 116 117       1.00000000       0.10000000
  2 116 118       0.00000000       0.10000000
  2 116 119      -1.00000000       0.10000000
  4 117 85      59.50000000       0.10000000
  4 117 86      58.50000000       0.10000000
  4 117 87      54.50000000       0.10000000
  4 117 88      51.00000000       0.10000000
  4 117 89      45.50000000       0.10000000
  2 117 90      41.50000000       0.10000000
  2 117 91      36.00000000       0.10000000
  2 117 92      35.50000000       0.10000000
  2 117 93      31.00000000       0.10000000
  2 117 94      26.50000000       0.10000000
  2 117 95      25.50000000       0.10000000
  2 117 96      26.00000000       0.10000000
  2 117 97      25.00000000       0.10000000
  2 117 98      18.00000000       0.10000000
  2 117 99      16.50000000       0.10000000
  2 117 100      16.50000000       0.10000000
  2 117 101      15.50000000       0.10000000
  2 117 102      16.00000000       0.10000000
  2 117 103      16.00000000       0.10000000
  2 117 104      17.00000000       0.10000000
  2 117 105      16.50000000       0.10000000
  2 117 106      17.00000000       0.10000000
  2 117 107      13.00000000       0.10000000
  2 117 108      11.00000000       0.10000000
  2 117 109      11.00000000       0.10000000
  2 117 110       8.50000000       0.10000000
  2 117 111       7.00000000       0.10000000
  2 117 112       6.00000000       0.10000000
  2 117 113       4.50000000       0.10000000
  2 117 114       3.00000000       0.10000000
  2 117 115       2.00000000       0.10000000
  2 117 116       2.00000000       0.10000000
  2 117 117       1.00000000       0.10000000
  2 117 118       0.00000000       0.10000000
  2 117 119      -1.00000000       0.10000000
  4 118 85      52.50000000       0.10000000
  4 118 86      54.00000000       0.10000000
  4 118 87      56.00000000       0.10000000
  4 118 88      50.50000000       0.10000000
  2 118 89      43.50000000       0.10000000
  2 118 90      39.50000000       0.10000000
  2 118 91      36.00000000       0.10000000
  2 118 92      31.50000000       0.10000000
  2 118 93      27.00000000       0.10000000
  4 118 94      31.00000000       0.10000000
  4 118 95      32.50000000       0.10000000
  4 118 96      29.00000000       0.10000000
  4 118 97      29.50000000       0.10000000
  4 118 98      28.00000000       0.10000000
  2 118 99      22.50000000       0.10000000
  2 118 100      20.00000000       0.10000000
  2 118 101      19.00000000       0.10000000
  2 118 102      17.00000000       0.10000000
  2 118 103      15.00000000       0.10000000
  2 118 104      16.00000000       0.10000000
  2 118 105      16.50000000       0.10000000
  2 118 106      16.00000000       0.10000000
  2 118 107      13.50000000       0.10000000
  2 118 108      13.00000000       0.10000000
  2 118 109      11.00000000       0.10000000
  2 118 110      10.00000000       0.10000000
  2 118 111       8.00000000       0.10000000
  2 118 112       7.00000000       0.10000000
  2 118 113       5.50000000       0.10000000
  2 118 114       4.00000000       0.10000000
  2 118 115       3.00000000       0.10000000
  2 118 116       2.00000000       0.10000000
  2 118 117       2.00000000       0.10000000
  2 118 118       1.00000000       0.10000000
  2 118 119       0.00000000       0.10000000
  4 119 85      45.50000000       0.10000000
  2 119 86      49.50000000       0.10000000
  2 119 87      49.00000000       0.10000000
  2 119 88      47.00000000       0.10000000
  2 119 89      40.00000000       0.10000000
  2 119 90      36.00000000       0.10000000
  2 119 91      32.00000000       0.10000000
  2 119 92      29.50000000       0.10000000
  4 119 93      37.50000000       0.10000000
  4 119 94      33.00000000       0.10000000
  4 119 95      33.50000000       0.10000000
  4 119 96      30.50000000       0.10000000
  4 119 97      32.50000000       0.10000000
  4 119 98      37.50000000       0.10000000
  4 119 99      26.00000000       0.10000000
  2 119 100      20.50000000       0.10000000
  2 119 101      20.50000000       0.10000000
  2 119 102      20.50000000       0.10000000
  2 119 103      18.50000000       0.10000000
  2 119 104      16.50000000       0.10000000
  2 119 105      15.50000000       0.10000000
  2 119 106      17.00000000       0.10000000
  2 119 107      14.00000000       0.10000000
  2 119 108      13.00000000       0.10000000
  2 119 109      11.50000000       0.10000000
  2 119 110      10.00000000       0.10000000
  2 119 111       9.00000000       0.10000000
  2 119 112       7.00000000       0.10000000
  2 119 113       6.00000000       0.10000000
  2 119 114       4.50000000       0.10000000
  2 119 115       4.00000000       0.10000000
  2 119 116       3.00000000       0.10000000
  2 119 117       2.00000000       0.10000000
  2 119 118       1.00000000       0.10000000
  2 119 119       0.00000000       0.10000000
  4 120 85      47.00000000       0.10000000
  2 120 86      43.50000000       0.10000000
  2 120 87      42.00000000       0.10000000
  2 120 88      35.00000000       0.10000000
  2 120 89      32.00000000       0.10000000
  2 120 90      33.00000000       0.10000000
  2 120 91      32.00000000       0.10000000
  4 120 92      38.50000000       0.10000000
  4 120 93      37.00000000       0.10000000
  4 120 94      31.00000000       0.10000000
  4 120 95      30.50000000       0.10000000
  4 120 96      33.00000000       0.10000000
  4 120 97      34.00000000       0.10000000
  4 120 98      36.00000000       0.10000000
  2 120 99      22.00000000       0.10000000
  2 120 100      21.50000000       0.10000000
  2 120 101      21.00000000       0.10000000
  2 120 102      19.50000000       0.10000000
  2 120 103      18.00000000       0.10000000
  2 120 104      16.50000000       0.10000000
  2 120 105      15.50000000       0.10000000
  2 120 106      14.00000000       0.10000000
  2 120 107      14.00000000       0.10000000
  2 120 108      12.50000000       0.10000000
  2 120 109      11.00000000       0.10000000
  2 120 110       9.50000000       0.10000000
  2 120 111       8.00000000       0.10000000
  2 120 112       7.00000000       0.10000000
  2 120 113       6.50000000       0.10000000
  2 120 114       4.50000000       0.10000000
  2 120 115       3.50000000       0.10000000
  2 120 116       2.00000000       0.10000000
  2 120 117       1.00000000       0.10000000
  2 120 118       0.00000000       0.10000000
  2 120 119      -1.00000000       0.10000000
  2 121 85      40.50000000       0.10000000
  2 121 86      39.50000000       0.10000000
  2 121 87      35.50000000       0.10000000
  2 121 88      43.00000000       0.10000000
  2 121 89      41.50000000       0.10000000
  2 121 90      42.00000000       0.10000000
  4 121 91      40.00000000       0.10000000
  4 121 92      32.50000000       0.10000000
  4 121 93      26.00000000       0.10000000
  4 121 94      24.50000000       0.10000000
  4 121 95      27.50000000       0.10000000
  4 121 96      36.00000000       0.10000000
  4 121 97      34.00000000       0.10000000
  4 121 98      26.50000000       0.10000000
  2 121 99      21.50000000       0.10000000
  2 121 100      20.00000000       0.10000000
  2 121 101      18.00000000       0.10000000
  2 121 102      16.00000000       0.10000000
  2 121 103      14.50000000       0.10000000
  2 121 104      13.00000000       0.10000000
  2 121 105      13.00000000       0.10000000
  2 121 106      14.00000000       0.10000000
  2 121 107      12.50000000       0.10000000
  2 121 108      11.50000000       0.10000000
  2 121 109      10.50000000       0.10000000
  2 121 110       9.50000000       0.10000000
  2 121 111       8.00000000       0.10000000
  2 121 112       6.50000000       0.10000000
  2 121 113       5.00000000       0.10000000
  2 121 114       5.00000000       0.10000000
  2 121 115       3.00000000       0.10000000
  2 121 116       2.00000000       0.10000000
  2 121 117       1.00000000       0.10000000
  2 121 118       0.00000000       0.10000000
  2 121 119      -0.50000000       0.10000000
  2 122 85      42.50000000       0.10000000
  2 122 86      36.00000000       0.10000000
  2 122 87      51.50000000       0.10000000
  2 122 88      51.00000000       0.10000000
  4 122 89      48.00000000       0.10000000
  4 122 90      37.00000000       0.10000000
  4 122 91      29.50000000       0.10000000
  4 122 92      23.00000000       0.10000000
  4 122 93      23.00000000       0.10000000
  4 122 94      28.00000000       0.10000000
  4 122 95      32.50000000       0.10000000
  4 122 96      31.00000000       0.10000000
  4 122 97      37.00000000       0.10000000
  2 122 98      21.00000000       0.10000000
  2 122 99      17.50000000       0.10000000
  2 122 100      16.50000000       0.10000000
  2 122 101      16.50000000       0.10000000
  2 122 102      14.50000000       0.10000000
  2 122 103      14.00000000       0.10000000
  2 122 104      13.00000000       0.10000000
  2 122 105      12.00000000       0.10000000
  2 122 106      12.00000000       0.10000000
  2 122 107      12.00000000       0.10000000
  2 122 108      10.50000000       0.10000000
  2 122 109      10.00000000       0.10000000
  2 122 110       9.00000000       0.10000000
  2 122 111       8.00000000       0.10000000
  2 122 112       7.00000000       0.10000000
  2 122 113       4.00000000       0.10000000
  2 122 114       4.00000000       0.10000000
  2 122 115       3.00000000       0.10000000
  2 122 116       2.00000000       0.10000000
  2 122 117       1.00000000       0.10000000
  2 122 118       0.50000000       0.10000000
  2 122 119       0.00000000       0.10000000
  2 123 85      41.50000000       0.10000000
  2 123 86      43.50000000       0.10000000
  2 123 87      55.00000000       0.10000000
  4 123 88      49.50000000       0.10000000
  4 123 89      29.00000000       0.10000000
  4 123 90      20.00000000       0.10000000
  4 123 91      19.00000000       0.10000000
  4 123 92      19.00000000       0.10000000
  4 123 93      19.00000000       0.10000000
  4 123 94      19.00000000       0.10000000
  4 123 95      41.00000000       0.10000000
  4 123 96      46.50000000       0.10000000
  4 123 97      29.00000000       0.10000000
  2 123 98      21.00000000       0.10000000
  2 123 99      13.50000000       0.10000000
  2 123 100      14.00000000       0.10000000
  2 123 101      13.00000000       0.10000000
  2 123 102      13.00000000       0.10000000
  2 123 103      12.00000000       0.10000000
  2 123 104      13.00000000       0.10000000
  2 123 105      13.00000000       0.10000000
  2 123 106      12.00000000       0.10000000
  2 123 107      11.00000000       0.10000000
  2 123 108       9.50000000       0.10000000
  2 123 109       9.00000000       0.10000000
  2 123 110       8.00000000       0.10000000
  2 123 111       7.00000000       0.10000000
  2 123 112       7.00000000       0.10000000
  2 123 113       4.00000000       0.10000000
  2 123 114       4.00000000       0.10000000
  2 123 115       3.00000000       0.10000000
  2 123 116       2.00000000       0.10000000
  2 123 117       1.00000000       0.10000000
  2 123 118       1.00000000       0.10000000
  2 123 119       1.00000000       0.10000000
  2 124 85      43.00000000       0.10000000
  2 124 86      58.50000000       0.10000000
  4 124 87      59.00000000       0.10000000
  4 124 88      41.50000000       0.10000000
  4 124 89      29.50000000       0.10000000
  4 124 90      19.00000000       0.10000000
  4 124 91      19.00000000       0.10000000
  4 124 92      19.00000000       0.10000000
  4 124 93      19.00000000       0.10000000
  4 124 94      19.00000000       0.10000000
  4 124 95      19.00000000       0.10000000
  4 124 96      27.00000000       0.10000000
  2 124 97      17.50000000       0.10000000
  2 124 98      14.00000000       0.10000000
  2 124 99      14.00000000       0.10000000
  2 124 100      13.00000000       0.10000000
  2 124 101      12.50000000       0.10000000
  2 124 102      12.00000000       0.10000000
  2 124 103      11.00000000       0.10000000
  2 124 104      11.00000000       0.10000000
  2 124 105      12.00000000       0.10000000
  2 124 106      12.00000000       0.10000000
  2 124 107      12.00000000       0.10000000
  2 124 108       9.00000000       0.10000000
  2 124 109       8.00000000       0.10000000
  2 124 110       7.00000000       0.10000000
  2 124 111       6.00000000       0.10000000
  2 124 112       5.50000000       0.10000000
  2 124 113       4.00000000       0.10000000
  2 124 114       4.00000000       0.10000000
  2 124 115       3.00000000       0.10000000
  2 124 116       2.00000000       0.10000000
  2 124 117       2.00000000       0.10000000
  2 124 118       2.00000000       0.10000000
  2 124 119       1.00000000       0.10000000
  2 125 85      62.00000000       0.10000000
  4 125 86      60.00000000       0.10000000
  4 125 87      41.50000000       0.10000000
  4 125 88      37.50000000       0.10000000
  4 125 89      22.00000000       0.10000000
  4 125 90      19.00000000       0.10000000
  4 125 91      19.00000000       0.10000000
  4 125 92      19.00000000       0.10000000
  4 125 93      19.00000000       0.10000000
  4 125 94      19.00000000       0.10000000
  4 125 95      19.50000000       0.10000000
  2 125 96      20.00000000       0.10000000
  2 125 97      14.00000000       0.10000000
  2 125 98      14.00000000       0.10000000
  2 125 99      13.00000000       0.10000000
  2 125 100      13.00000000       0.10000000
  2 125 101      12.00000000       0.10000000
  2 125 102      11.00000000       0.10000000
  2 125 103      10.50000000       0.10000000
  2 125 104      10.00000000       0.10000000
  2 125 105       9.00000000       0.10000000
  2 125 106      12.00000000       0.10000000
  2 125 107      12.00000000       0.10000000
  2 125 108      11.00000000       0.10000000
  2 125 109       7.50000000       0.10000000
  2 125 110       6.00000000       0.10000000
  2 125 111       5.00000000       0.10000000
  2 125 112       4.00000000       0.10000000
  2 125 113       4.00000000       0.10000000
  2 125 114       4.00000000       0.10000000
  2 125 115       3.00000000       0.10000000
  2 125 116       3.00000000       0.10000000
  2 125 117       3.00000000       0.10000000
  2 125 118       2.00000000       0.10000000
  2 125 119       1.00000000       0.10000000
  4 126 85      65.00000000       0.10000000
  4 126 86      43.50000000       0.10000000
  4 126 87      35.00000000       0.10000000
  4 126 88      24.50000000       0.10000000
  4 126 89      22.00000000       0.10000000
  4 126 90      19.00000000       0.10000000
  4 126 91      19.00000000       0.10000000
  4 126 92      19.00000000       0.10000000
  4 126 93      19.00000000       0.10000000
  4 126 94      19.00000000       0.10000000
  4 126 95      20.00000000       0.10000000
  4 126 96      19.00000000       0.10000000
  2 126 97      12.50000000       0.10000000
  2 126 98      14.00000000       0.10000000
  2 126 99      14.00000000       0.10000000
  2 126 100      13.00000000       0.10000000
  2 126 101      12.00000000       0.10000000
  2 126 102      11.00000000       0.10000000
  2 126 103      11.00000000       0.10000000
  2 126 104      10.00000000       0.10000000
  2 126 105      12.00000000       0.10000000
  2 126 106      14.50000000       0.10000000
  2 126 107      12.50000000       0.10000000
  2 126 108      10.00000000       0.10000000
  2 126 109       7.50000000       0.10000000
  2 126 110       5.00000000       0.10000000
  2 126 111       4.00000000       0.10000000
  2 126 112       4.00000000       0.10000000
  2 126 113       4.00000000       0.10000000
  2 126 114       4.00000000       0.10000000
  2 126 115       4.00000000       0.10000000
  2 126 116       4.00000000       0.10000000
  2 126 117       3.00000000       0.10000000
  2 126 118       1.00000000       0.10000000
  2 126 119       1.50000000       0.10000000
  4 127 85      58.50000000       0.10000000
  4 127 86      44.50000000       0.10000000
  4 127 87      33.00000000       0.10000000
  4 127 88      23.50000000       0.10000000
  4 127 89      23.50000000       0.10000000
  4 127 90      23.00000000       0.10000000
  4 127 91      21.50000000       0.10000000
  4 127 92      19.00000000       0.10000000
  4 127 93      19.00000000       0.10000000
  4 127 94      22.00000000       0.10000000
  4 127 95      20.00000000       0.10000000
  4 127 96      19.00000000       0.10000000
  2 127 97      14.50000000       0.10000000
  2 127 98      14.00000000       0.10000000
  2 127 99      14.00000000       0.10000000
  2 127 100      13.50000000       0.10000000
  2 127 101      13.00000000       0.10000000
  2 127 102      12.50000000       0.10000000
  2 127 103      12.00000000       0.10000000
  2 127 104      11.00000000       0.10000000
  2 127 105      16.00000000       0.10000000
  2 127 106      13.00000000       0.10000000
  2 127 107      12.50000000       0.10000000
  2 127 108      10.00000000       0.10000000
  2 127 109       8.00000000       0.10000000
  2 127 110       6.00000000       0.10000000
  2 127 111       5.00000000       0.10000000
  2 127 112       6.50000000       0.10000000
  2 127 113       5.00000000       0.10000000
  2 127 114       4.50000000       0.10000000
  2 127 115       4.00000000       0.10000000
  2 127 116       4.00000000       0.10000000
  2 127 117       2.50000000       0.10000000
  2 127 118       2.00000000       0.10000000
  2 127 119       2.00000000       0.10000000
  4 128 85      56.50000000       0.10000000
  4 128 86      42.00000000       0.10000000
  4 128 87      36.50000000       0.10000000
  4 128 88      38.50000000       0.10000000
  4 128 89      32.50000000       0.10000000
  4 128 90      40.50000000       0.10000000
  4 128 91      42.00000000       0.10000000
  4 128 92      32.50000000       0.10000000
  4 128 93      29.00000000       0.10000000
  4 128 94      25.00000000       0.10000000
  4 128 95      20.00000000       0.10000000
  4 128 96      17.50000000       0.10000000
  2 128 97      16.50000000       0.10000000
  2 128 98      17.00000000       0.10000000
  2 128 99      14.00000000       0.10000000
  2 128 100      14.00000000       0.10000000
  2 128 101      14.00000000       0.10000000
  2 128 102      13.00000000       0.10000000
  2 128 103      12.00000000       0.10000000
  2 128 104      11.00000000       0.10000000
  2 128 105      10.50000000       0.10000000
  2 128 106      11.00000000       0.10000000
  2 128 107      13.00000000       0.10000000
  2 128 108      11.00000000       0.10000000
  2 128 109       8.50000000       0.10000000
  2 128 110       7.00000000       0.10000000
  2 128 111       6.00000000       0.10000000
  2 128 112       6.00000000       0.10000000
  2 128 113       6.00000000       0.10000000
  2 128 114       6.00000000       0.10000000
  2 128 115       6.00000000       0.10000000
  2 128 116       5.00000000       0.10000000
  2 128 117       4.00000000       0.10000000
  2 128 118       3.00000000       0.10000000
  2 128 119       3.00000000       0.10000000
  4 129 85      37.50000000       0.10000000
  4 129 86      28.00000000       0.10000000
  4 129 87      32.00000000       0.10000000
  4 129 88      26.00000000       0.10000000
  4 129 89      31.00000000       0.10000000
  4 129 90      32.00000000       0.10000000
  4 129 91      33.00000000       0.10000000
  4 129 92      28.50000000       0.10000000
  4 129 93      22.00000000       0.10000000
  4 129 94      18.00000000       0.10000000
  4 129 95      12.50000000       0.10000000
  4 129 96      13.50000000       0.10000000
  4 129 97      15.50000000       0.10000000
  2 129 98      13.50000000       0.10000000
  2 129 99      14.00000000       0.10000000
  2 129 100      14.00000000       0.10000000
  2 129 101      14.00000000       0.10000000
  2 129 102      13.00000000       0.10000000
  2 129 103      12.00000000       0.10000000
  2 129 104      11.00000000       0.10000000
  2 129 105      11.00000000       0.10000000
  2 129 106      11.50000000       0.10000000
  2 129 107       9.00000000       0.10000000
  2 129 108      10.00000000       0.10000000
  2 129 109      11.00000000       0.10000000
  2 129 110       8.50000000       0.10000000
  2 129 111       7.00000000       0.10000000
  2 129 112       7.00000000       0.10000000
  2 129 113       7.00000000       0.10000000
  2 129 114       6.00000000       0.10000000
  2 129 115       5.00000000       0.10000000
  2 129 116       4.00000000       0.10000000
  2 129 117       3.50000000       0.10000000
  2 129 118       3.00000000       0.10000000
  2 129 119       3.00000000       0.10000000
  4 130 85      31.50000000       0.10000000
  4 130 86      23.50000000       0.10000000
  4 130 87      18.50000000       0.10000000
  4 130 88      14.00000000       0.10000000
  4 130 89      12.00000000       0.10000000
  4 130 90      13.50000000       0.10000000
  4 130 91      10.00000000       0.10000000
  4 130 92      21.50000000       0.10000000
  4 130 93      18.00000000       0.10000000
  4 130 94      18.00000000       0.10000000
  4 130 95      14.00000000       0.10000000
  4 130 96      14.00000000       0.10000000
  4 130 97      14.00000000       0.10000000
  4 130 98      13.00000000       0.10000000
  4 130 99      15.50000000       0.10000000
  2 130 100      14.00000000       0.10000000
  2 130 101      14.00000000       0.10000000
  2 130 102      13.00000000       0.10000000
  2 130 103      12.00000000       0.10000000
  2 130 104      11.00000000       0.10000000
  2 130 105      10.50000000       0.10000000
  2 130 106       9.50000000       0.10000000
  2 130 107       9.00000000       0.10000000
  2 130 108       8.50000000       0.10000000
  2 130 109      10.00000000       0.10000000
  2 130 110       9.00000000       0.10000000
  2 130 111       8.50000000       0.10000000
  2 130 112       8.00000000       0.10000000
  2 130 113       7.00000000       0.10000000
  2 130 114       4.00000000       0.10000000
  2 130 115       4.00000000       0.10000000
  2 130 116       3.50000000       0.10000000
  2 130 117       3.50000000       0.10000000
  4 130 118       3.00000000       0.10000000
  4 130 119       4.00000000       0.10000000
  4 131 85      32.50000000       0.10000000
  4 131 86      24.00000000       0.10000000
  4 131 87      15.50000000       0.10000000
  4 131 88      14.00000000       0.10000000
  4 131 89      13.00000000       0.10000000
  4 131 90      14.00000000       0.10000000
  4 131 91      14.00000000       0.10000000
  4 131 92      14.00000000       0.10000000
  4 131 93      14.00000000       0.10000000
  4 131 94      14.00000000       0.10000000
  4 131 95      14.00000000       0.10000000
  4 131 96      12.50000000       0.10000000
  4 131 97      14.00000000       0.10000000
  4 131 98      18.00000000       0.10000000
  4 131 99      14.50000000       0.10000000
  4 131 100      14.00000000       0.10000000
  2 131 101      13.00000000       0.10000000
  2 131 102      12.50000000       0.10000000
  2 131 103      12.00000000       0.10000000
  2 131 104      11.00000000       0.10000000
  2 131 105      10.00000000       0.10000000
  2 131 106      10.00000000       0.10000000
  2 131 107      10.00000000       0.10000000
  2 131 108      10.00000000       0.10000000
  2 131 109      10.00000000       0.10000000
  2 131 110       9.50000000       0.10000000
  2 131 111       9.50000000       0.10000000
  2 131 112       3.00000000       0.10000000
  2 131 113       4.50000000       0.10000000
  2 131 114       4.00000000       0.10000000
  2 131 115       3.50000000       0.10000000
  2 131 116       2.00000000       0.10000000
  4 131 117       2.00000000       0.10000000
  4 131 118       9.00000000       0.10000000
  4 131 119       9.00000000       0.10000000
  4 132 85      32.00000000       0.10000000
  4 132 86      24.00000000       0.10000000
  4 132 87      16.00000000       0.10000000
  4 132 88      14.00000000       0.10000000
  4 132 89      16.00000000       0.10000000
  4 132 90      14.00000000       0.10000000
  4 132 91      13.50000000       0.10000000
  4 132 92      14.00000000       0.10000000
  4 132 93      14.00000000       0.10000000
  4 132 94      16.50000000       0.10000000
  4 132 95      18.00000000       0.10000000
  4 132 96      21.00000000       0.10000000
  4 132 97      26.00000000       0.10000000
  4 132 98      20.00000000       0.10000000
  4 132 99      14.00000000       0.10000000
  4 132 100      14.00000000       0.10000000
  4 132 101      13.50000000       0.10000000
  2 132 102      13.00000000       0.10000000
  2 132 103      12.00000000       0.10000000
  2 132 104      11.00000000       0.10000000
  2 132 105      11.00000000       0.10000000
  2 132 106      11.00000000       0.10000000
  2 132 107      11.00000000       0.10000000
  2 132 108      11.00000000       0.10000000
  2 132 109      11.00000000       0.10000000
  2 132 110      10.50000000       0.10000000
  2 132 111       7.00000000       0.10000000
  2 132 112       8.50000000       0.10000000
  2 132 113       4.00000000       0.10000000
  2 132 114       4.00000000       0.10000000
  4 132 115       3.50000000       0.10000000
  4 132 116      13.50000000       0.10000000
  4 132 117      13.50000000       0.10000000
  4 132 118      11.00000000       0.10000000
  4 132 119       8.50000000       0.10000000
  4 133 85      35.50000000       0.10000000
  4 133 86      25.50000000       0.10000000
  4 133 87      19.50000000       0.10000000
  4 133 88      17.50000000       0.10000000
  4 133 89      16.50000000       0.10000000
  4 133 90      14.50000000       0.10000000
  4 133 91      17.50000000       0.10000000
  4 133 92      14.00000000       0.10000000
  4 133 93      13.50000000       0.10000000
  4 133 94      19.50000000       0.10000000
  4 133 95      18.00000000       0.10000000
  4 133 96      20.00000000       0.10000000
  4 133 97      19.00000000       0.10000000
  4 133 98      19.50000000       0.10000000
  4 133 99      17.50000000       0.10000000
  4 133 100      14.00000000       0.10000000
  4 133 101      14.00000000       0.10000000
  4 133 102      13.00000000       0.10000000
  2 133 103      12.00000000       0.10000000
  2 133 104      12.00000000       0.10000000
  2 133 105      12.00000000       0.10000000
  2 133 106      12.00000000       0.10000000
  2 133 107      12.00000000       0.10000000
  2 133 108      12.00000000       0.10000000
  2 133 109      12.00000000       0.10000000
  2 133 110       9.50000000       0.10000000