BEGIN options
  SAVE_FLOWS
END options

BEGIN dimensions
  MAXBOUND  47
END dimensions

BEGIN period  1
  1 117 6     180.00000000       0.00500000     178.00000000
  1 117 7     177.18393724       0.00500000     175.18393724
  1 116 7     175.00000000       0.00500000     173.00000000
  1 116 8     173.83246018       0.00500000     171.83246018
  1 116 9     171.91838051       0.00500000     169.91838051
  1 116 10     170.00000000       0.00500000     168.00000000
  1 116 11     165.47187242       0.00500000     163.47187242
  1 115 12     160.00000000       0.00500000     158.00000000
  1 115 13     158.20995910       0.00500000     156.20995910
  1 114 13     156.68662367       0.00500000     154.68662367
  1 114 14     155.00000000       0.00500000     153.00000000
  1 113 14     153.82564779       0.00500000     151.82564779
  1 113 15     152.30471968       0.00500000     150.30471968
  1 112 15     151.24050723       0.00500000     149.24050723
  1 112 16     150.00000000       0.00500000     148.00000000
  1 112 17     147.22620534       0.00500000     145.22620534
  1 111 17     145.00000000       0.00500000     143.00000000
  1 111 18     142.82586766       0.00500000     140.82586766
  1 110 18     141.50845673       0.00500000     139.50845673
  1 110 19     140.00000000       0.00500000     138.00000000
  1 110 20     138.03488440       0.00500000     136.03488440
  1 109 20     136.74037891       0.00500000     134.74037891
  1 109 21     135.00000000       0.00500000     133.00000000
  1 108 21     133.84853427       0.00500000     131.84853427
  1 108 22     132.61700791       0.00500000     130.61700791
  1 108 23     131.13402929       0.00500000     129.13402929
  1 107 23     130.00000000       0.00500000     128.00000000
  1 107 24     127.62103615       0.00500000     125.62103615
  1 107 25     125.00000000       0.00500000     123.00000000
  1 107 26     123.42123877       0.00500000     121.42123877
  1 106 26     122.16128682       0.00500000     120.16128682
  1 106 27     120.00000000       0.00500000     118.00000000
  1 106 28     115.00000000       0.00500000     113.00000000
  1 106 29     115.00000000       0.00500000     113.00000000
  1 106 30     113.32348991       0.00500000     111.32348991
  1 106 31     111.67151805       0.00500000     109.67151805
  1 106 32     110.00000000       0.00500000     108.00000000
  1 106 33     108.02176503       0.00500000     106.02176503
  1 105 33     106.75975264       0.00500000     104.75975264
  1 105 34     105.00000000       0.00500000     103.00000000
  1 105 35     103.35706113       0.00500000     101.35706113
  1 105 36     102.19305496       0.00500000     100.19305496
  1 104 36     101.29504168       0.00500000      99.29504168
  1 104 37     100.00000000       0.00500000      98.00000000
  1 103 37      98.27449197       0.00500000      96.27449197
  1 103 38      97.06700439       0.00500000      95.06700439
  1 102 38      95.00000000       0.00500000      93.00000000
END period  1

