BEGIN options
  BUDGET  FILEOUT  pest_2D_R.cbc
  HEAD  FILEOUT  pest_2D_R.hds
END options

BEGIN period  1
  SAVE  HEAD  LAST
  SAVE  BUDGET  ALL
  PRINT  BUDGET  ALL
END period  1

