BEGIN options
  BUDGET  FILEOUT  DIS_Chabart.cbc
  HEAD  FILEOUT  DIS_Chabart.hds
END options

BEGIN period  1
  SAVE  HEAD  LAST
  SAVE  BUDGET  ALL
  PRINT  HEAD  LAST
  PRINT  BUDGET  ALL
END period  1

