BEGIN options
END options

BEGIN timing
  TDIS6  theis_mf6.tdis
END timing

BEGIN models
  gwf6  test_perma.nam  test_perma
END models

BEGIN exchanges
END exchanges

BEGIN solutiongroup  1
  ims6  theis_mf6.ims  test_perma
END solutiongroup  1

