BEGIN options
END options

BEGIN dimensions
  MAXBOUND  11
END dimensions

BEGIN period  1
  1 17 27      22.00000000
  1 17 28      20.00000000
  1 16 29      15.00000000
  1 16 30      14.00000000
  1 16 31      12.00000000
  1 16 32       9.00000000
  1 23 29      16.00000000
  1 23 30      14.00000000
  1 24 31      10.00000000
  1 31 31      18.00000000
  1 31 33      12.00000000
END period  1

