BEGIN options
END options

BEGIN dimensions
  MAXBOUND  212
END dimensions

BEGIN period  1
  1 1 33       0.10000000
  1 1 34       0.10000000
  1 1 35       0.10000000
  1 1 36       0.10000000
  1 1 37       0.10000000
  1 1 38       0.10000000
  1 1 39       0.10000000
  1 1 40       0.10000000
  1 1 41       0.10000000
  1 1 42       0.10000000
  1 2 32       0.10000000
  1 2 33       0.10000000
  1 2 34       0.10000000
  1 2 35       0.10000000
  1 2 36       0.10000000
  1 2 37       0.10000000
  1 2 38       0.10000000
  1 2 39       0.10000000
  1 2 40       0.10000000
  1 2 41       0.10000000
  1 2 42       0.10000000
  1 3 32       0.10000000
  1 3 33       0.10000000
  1 3 34       0.10000000
  1 3 35       0.10000000
  1 3 36       0.10000000
  1 3 37       0.10000000
  1 3 38       0.10000000
  1 3 39       0.10000000
  1 3 40       0.10000000
  1 3 41       0.10000000
  1 3 42       0.10000000
  1 4 33       0.10000000
  1 4 34       0.10000000
  1 4 35       0.10000000
  1 4 36       0.10000000
  1 4 37       0.10000000
  1 4 38       0.10000000
  1 4 39       0.10000000
  1 4 40       0.10000000
  1 4 41       0.10000000
  1 4 42       0.10000000
  1 5 33       0.10000000
  1 5 34       0.10000000
  1 5 35       0.10000000
  1 5 36       0.10000000
  1 5 37       0.10000000
  1 5 38       0.10000000
  1 5 39       0.10000000
  1 5 40       0.10000000
  1 5 41       0.10000000
  1 5 42       0.10000000
  1 6 34       0.10000000
  1 6 35       0.10000000
  1 6 36       0.10000000
  1 6 37       0.10000000
  1 6 38       0.10000000
  1 6 39       0.10000000
  1 6 40       0.10000000
  1 6 41       0.10000000
  1 6 42       0.10000000
  1 7 35       0.10000000
  1 7 36       0.10000000
  1 7 37       0.10000000
  1 7 38       0.10000000
  1 7 39       0.10000000
  1 7 40       0.10000000
  1 7 41       0.10000000
  1 7 42       0.10000000
  1 8 38       0.10000000
  1 8 39       0.10000000
  1 8 40       0.10000000
  1 8 41       0.10000000
  1 8 42       0.10000000
  1 9 38       0.10000000
  1 9 39       0.10000000
  1 9 40       0.10000000
  1 9 41       0.10000000
  1 9 42       0.10000000
  1 10 38       0.10000000
  1 10 39       0.10000000
  1 10 40       0.10000000
  1 10 41       0.10000000
  1 10 42       0.10000000
  1 11 38       0.10000000
  1 11 39       0.10000000
  1 11 40       0.10000000
  1 11 41       0.10000000
  1 11 42       0.10000000
  1 12 38       0.10000000
  1 12 39       0.10000000
  1 12 40       0.10000000
  1 12 41       0.10000000
  1 12 42       0.10000000
  1 13 38       0.10000000
  1 13 39       0.10000000
  1 13 40       0.10000000
  1 13 41       0.10000000
  1 13 42       0.10000000
  1 14 38       0.10000000
  1 14 39       0.10000000
  1 14 40       0.10000000
  1 14 41       0.10000000
  1 14 42       0.10000000
  1 15 38       0.10000000
  1 15 39       0.10000000
  1 15 40       0.10000000
  1 15 41       0.10000000
  1 15 42       0.10000000
  1 16 38       0.10000000
  1 16 39       0.10000000
  1 16 40       0.10000000
  1 16 41       0.10000000
  1 16 42       0.10000000
  1 17 38       0.10000000
  1 17 39       0.10000000
  1 17 40       0.10000000
  1 17 41       0.10000000
  1 17 42       0.10000000
  1 18 38       0.10000000
  1 18 39       0.10000000
  1 18 40       0.10000000
  1 18 41       0.10000000
  1 18 42       0.10000000
  1 19 38       0.10000000
  1 19 39       0.10000000
  1 19 40       0.10000000
  1 19 41       0.10000000
  1 19 42       0.10000000
  1 20 36       0.10000000
  1 20 37       0.10000000
  1 20 38       0.10000000
  1 20 39       0.10000000
  1 20 40       0.10000000
  1 20 41       0.10000000
  1 20 42       0.10000000
  1 21 36       0.10000000
  1 21 37       0.10000000
  1 21 38       0.10000000
  1 21 39       0.10000000
  1 21 40       0.10000000
  1 21 41       0.10000000
  1 21 42       0.10000000
  1 22 37       0.10000000
  1 22 38       0.10000000
  1 22 39       0.10000000
  1 22 40       0.10000000
  1 22 41       0.10000000
  1 22 42       0.10000000
  1 23 37       0.10000000
  1 23 38       0.10000000
  1 23 39       0.10000000
  1 23 40       0.10000000
  1 23 41       0.10000000
  1 23 42       0.10000000
  1 24 38       0.10000000
  1 24 39       0.10000000
  1 24 40       0.10000000
  1 24 41       0.10000000
  1 24 42       0.10000000
  1 25 38       0.10000000
  1 25 39       0.10000000
  1 25 40       0.10000000
  1 25 41       0.10000000
  1 25 42       0.10000000
  1 26 38       0.10000000
  1 26 39       0.10000000
  1 26 40       0.10000000
  1 26 41       0.10000000
  1 26 42       0.10000000
  1 27 38       0.10000000
  1 27 39       0.10000000
  1 27 40       0.10000000
  1 27 41       0.10000000
  1 27 42       0.10000000
  1 28 38       0.10000000
  1 28 39       0.10000000
  1 28 40       0.10000000
  1 28 41       0.10000000
  1 28 42       0.10000000
  1 29 39       0.10000000
  1 29 40       0.10000000
  1 29 41       0.10000000
  1 29 42       0.10000000
  1 30 39       0.10000000
  1 30 40       0.10000000
  1 30 41       0.10000000
  1 30 42       0.10000000
  1 31 39       0.10000000
  1 31 40       0.10000000
  1 31 41       0.10000000
  1 31 42       0.10000000
  1 32 39       0.10000000
  1 32 40       0.10000000
  1 32 41       0.10000000
  1 32 42       0.10000000
  1 33 39       0.10000000
  1 33 40       0.10000000
  1 33 41       0.10000000
  1 33 42       0.10000000
  1 34 39       0.10000000
  1 34 40       0.10000000
  1 34 41       0.10000000
  1 34 42       0.10000000
  1 35 39       0.10000000
  1 35 40       0.10000000
  1 35 41       0.10000000
  1 35 42       0.10000000
  1 36 40       0.10000000
  1 36 41       0.10000000
  1 36 42       0.10000000
  1 8 36       0.10000000
END period  1

