BEGIN griddata
  strt  LAYERED
    INTERNAL  FACTOR  1.0
         151.00000000     151.00000000     151.00000000     151.00000000     151.00000000     151.00000000     151.00000000     151.00000000     151.00000000     151.00000000     151.00000000     151.00000000     151.00000000     151.00000000     151.00000000     151.00000000     151.00000000     151.00000000     151.00000000     151.00000000
         151.00000000     151.00000000     151.00000000     151.00000000     151.00000000     151.00000000     151.00000000     151.00000000      20.90000000      -4.00000000      -5.00000000      -9.00000000     -14.00000000      -4.00000000      -4.00000000      -4.00000000      -4.00000000       0.00000000      -9.00000000     -25.80000000
         -28.70000000     -29.20000000
         151.00000000     151.00000000     151.00000000     151.00000000     151.00000000     151.00000000     151.00000000     151.00000000     151.00000000     151.00000000     151.00000000     151.00000000     151.00000000     151.00000000     151.00000000     151.00000000     151.00000000     151.00000000     151.00000000     151.00000000
         151.00000000     151.00000000     151.00000000     151.00000000     151.00000000     151.00000000     151.00000000      20.90000000      -1.00000000      -6.00000000      -9.00000000     -11.00000000     -14.00000000      -4.00000000      -4.00000000      -4.00000000      -4.00000000       0.00000000      -9.00000000     -26.50000000
         -29.00000000     -29.30000000
         151.00000000     151.00000000     151.00000000     151.00000000     151.00000000     151.00000000     151.00000000     151.00000000     151.00000000     151.00000000     151.00000000     151.00000000     151.00000000     151.00000000     151.00000000     151.00000000     151.00000000     151.00000000     151.00000000     151.00000000
         151.00000000     151.00000000     151.00000000     151.00000000     151.00000000     151.00000000      20.90000000       6.00000000      -2.00000000      -5.00000000      -8.00000000     -11.00000000     -16.00000000      -4.00000000      -4.00000000      -4.00000000      -4.00000000       0.00000000      -9.00000000     -26.00000000
         -28.80000000     -29.30000000
         151.00000000     151.00000000     151.00000000     151.00000000     151.00000000     151.00000000     151.00000000     151.00000000     151.00000000     151.00000000     151.00000000     151.00000000     151.00000000     151.00000000     151.00000000     151.00000000     151.00000000     151.00000000     151.00000000     151.00000000
         151.00000000     151.00000000      30.90000000      17.90000000      -2.10000000     -17.10000000      17.00000000      11.00000000       1.00000000      -4.00000000      -6.00000000     -10.00000000     -16.00000000     -18.60000000     -20.90000000     -22.40000000      -4.00000000       0.00000000      -9.00000000     -25.80000000
         -28.70000000     -29.30000000
         151.00000000     151.00000000     151.00000000     151.00000000     151.00000000     151.00000000     151.00000000     151.00000000     151.00000000     151.00000000     151.00000000     151.00000000     151.00000000     151.00000000     151.00000000     151.00000000     151.00000000     151.00000000     151.00000000     151.00000000
         151.00000000      25.90000000      37.00000000      36.00000000      31.00000000      25.00000000      17.00000000       6.00000000       4.00000000      -1.00000000      -5.00000000     -10.00000000     -15.00000000     -19.30000000     -24.00000000     -24.00000000      -4.00000000       0.00000000      -9.00000000     -25.60000000
         -29.00000000     -29.30000000
         151.00000000     151.00000000     151.00000000     151.00000000     151.00000000     151.00000000     151.00000000     151.00000000     151.00000000     151.00000000     151.00000000     151.00000000     151.00000000     151.00000000     151.00000000     151.00000000     151.00000000     151.00000000     151.00000000     151.00000000
          30.90000000      25.90000000      36.00000000      36.00000000      30.00000000      21.00000000      13.00000000      10.00000000       5.00000000       1.00000000      -5.00000000      -8.00000000     -15.00000000     -19.20000000     -23.60000000     -26.00000000      -4.00000000       0.00000000      -9.00000000     -24.30000000
         -28.10000000     -29.10000000
         151.00000000     151.00000000     151.00000000     151.00000000     151.00000000     151.00000000     151.00000000     151.00000000     151.00000000     151.00000000     151.00000000     151.00000000     151.00000000     151.00000000     151.00000000     151.00000000     151.00000000     151.00000000     151.00000000     151.00000000
          30.90000000      20.90000000      31.00000000      31.00000000      29.00000000      20.00000000      12.00000000       9.10010000       5.00000000       4.00000000      -6.00000000      -9.00000000     -14.00000000     -19.00000000     -24.00000000     -29.00000000     -24.00000000     -17.00000000      -9.00000000     -23.50000000
         -27.50000000     -29.20000000
         151.00000000     151.00000000     151.00000000     151.00000000     151.00000000     151.00000000     151.00000000     151.00000000     151.00000000     151.00000000     151.00000000     151.00000000     151.00000000     151.00000000     151.00000000     151.00000000     151.00000000     151.00000000     151.00000000     151.00000000
          32.00000000      32.00000000      31.00000000      23.00000000      21.00000000      19.00000000      14.00000000       9.00000000       6.00000000       1.70020000      -4.00000000      -7.00000000     -14.00000000     -19.00000000     -24.00000000     -17.00000000     -15.00000000     -16.00000000     -11.00000000     -23.30000000
         -29.00000000     -29.30000000
         151.00000000     151.00000000     151.00000000     151.00000000     151.00000000     151.00000000     151.00000000     151.00000000     151.00000000     151.00000000     151.00000000     151.00000000     151.00000000     151.00000000     151.00000000     151.00000000     151.00000000     151.00000000     151.00000000      30.90000000
          23.00000000      18.00000000      19.00000000      21.00000000      18.00000000      16.00000000      14.00000000       9.00000000       5.00000000       6.00000000      -1.00000000      -4.00000000      -7.00000000     -10.00000000     -13.00000000     -15.00000000     -17.00000000     -20.00000000     -14.00000000     -23.00000000
         -27.70000000     -29.20000000
         151.00000000     151.00000000     151.00000000     151.00000000     151.00000000     151.00000000     151.00000000     151.00000000     151.00000000     151.00000000     151.00000000     151.00000000     151.00000000     151.00000000     151.00000000     151.00000000     151.00000000     151.00000000     151.00000000     151.00000000
          33.00000000      27.00000000      17.00000000      15.00000000      13.00000000       9.00000000       6.00000000       6.00000000       7.00000000       5.00000000      -1.00000000      -3.00000000      -6.00000000      -9.00000000     -11.00000000     -13.00000000     -17.00000000     -21.00000000     -17.00000000     -23.00000000
         -27.40000000     -29.20000000
         151.00000000     151.00000000     151.00000000     151.00000000     151.00000000     151.00000000     151.00000000     151.00000000     151.00000000     151.00000000     151.00000000     151.00000000     151.00000000     151.00000000     151.00000000     151.00000000     151.00000000     151.00000000     151.00000000      30.90000000
          25.90000000       0.90000000      40.90000000      21.00000000      16.00000000      15.00000000      11.00000000       6.00000000       3.00000000       1.00000000       0.00000000      -3.00000000      -6.00000000      -9.00000000     -12.00000000     -17.00000000     -21.00000000     -21.00000000     -17.00000000     -23.30000000
         -29.00000000     -29.30000000
         151.00000000     151.00000000     151.00000000     151.00000000     151.00000000     151.00000000     151.00000000     151.00000000     151.00000000     151.00000000     151.00000000     151.00000000     151.00000000     151.00000000     151.00000000     151.00000000     151.00000000     151.00000000      35.90000000      30.90000000
          25.90000000       0.90000000      -9.10000000      40.90000000      30.90000000      25.90000000      16.00000000      10.00000000       4.00000000      -1.00000000      -6.00000000      -9.00000000     -10.00000000     -15.00000000     -17.00000000     -20.00000000     -21.00000000     -22.00000000     -17.00000000     -23.10000000
         -27.80000000     -29.20000000
         151.00000000     151.00000000     151.00000000     151.00000000     151.00000000     151.00000000     151.00000000     151.00000000     151.00000000     151.00000000     151.00000000     151.00000000     151.00000000     151.00000000     151.00000000     151.00000000     151.00000000      40.90000000      35.90000000      30.90000000
          25.90000000      20.90000000       0.90000000      -6.10000000     -14.10000000     -24.10000000      19.00000000      11.00000000       6.00000000       0.00000000      -4.10000000      -7.70000000     -11.00000000     -14.40000000     -16.70000000     -19.10000000     -21.00000000     -22.00000000     -17.00000000     -23.00000000
         -27.40000000     -29.20000000
         151.00000000     151.00000000     151.00000000     151.00000000     151.00000000     151.00000000     151.00000000     151.00000000     151.00000000     151.00000000     151.00000000     151.00000000     151.00000000     151.00000000     151.00000000     151.00000000     151.00000000      41.90000000      36.90000000      31.90000000
          25.90000000      20.90000000       0.90000000      -6.10000000     -14.10000000     -24.10000000      20.00000000      11.00000000       6.00000000       2.00000000      -1.70000000      -5.00000000      -8.90000000     -12.90000000     -16.00000000     -19.30000000     -22.00000000     -23.00000000     -14.00000000     -23.30000000
         -29.00000000     -29.30000000
         151.00000000     151.00000000     151.00000000     151.00000000     151.00000000     151.00000000     151.00000000     151.00000000     151.00000000     151.00000000     151.00000000     151.00000000     151.00000000     151.00000000      50.90000000      45.90000000      40.90000000      35.90000000      32.90000000      27.90000000
          25.90000000       0.90000000      -5.10000000      -6.10000000     -14.10000000      25.00000000      20.00000000      13.00000000       8.00000000       4.00000000      -0.50000000      -4.10000000      -7.40000000     -11.60000000     -16.40000000     -20.00000000     -22.00000000     -24.00000000     -11.00000000     -23.10000000
         -27.80000000     -29.20000000
         151.00000000     151.00000000     151.00000000     151.00000000     151.00000000     151.00000000     151.00000000     151.00000000     151.00000000     151.00000000     151.00000000      70.90000000      60.90000000      50.90000000      45.90000000      35.90000000      30.90000000      25.90000000      20.90000000       5.90000000
           0.90000000     -24.10000000     -24.10000000      33.00000000      26.00000000      21.00000000      17.00000000      11.00000000       7.00000000       3.00000000      -1.00000000      -4.00000000      -7.00000000     -11.00000000     -17.00000000     -21.00000000     -22.00000000     -24.00000000     -12.00000000     -23.00000000
         -27.40000000     -29.20000000
         151.00000000     151.00000000     151.00000000     151.00000000     151.00000000     151.00000000     151.00000000     151.00000000      90.90000000      76.90000000      70.90000000      60.90000000      50.90000000      40.90000000      30.90000000      25.90000000      20.90000000      10.90000000      58.00000000      51.00000000
          47.00000000      38.00000000      31.00000000      26.00000000      22.00000000      19.00000000      15.00000000      12.00000000       8.00000000       6.00000000     -47.10000000     -49.10000000     -54.10000000     -59.10000000     -74.10000000     -14.00000000     -19.00000000     -23.00000000     -12.00000000     -23.30000000
         -29.00000000     -29.30000000
         151.00000000     151.00000000     151.00000000     151.00000000     151.00000000     151.00000000     106.00000000      98.00000000      96.00000000      91.00000000      88.00000000      83.00000000      76.00000000      70.00000000      67.00000000      62.00000000      59.00000000      56.00000000      53.00000000      48.00000000
          43.00000000      36.00000000      30.00000000      27.00000000      23.00000000      19.00000000     -29.10000000     -34.10000000     -39.10000000     -44.10000000     -47.10000000     -49.10000000     -51.10000000     -54.10000000      -9.00000000     -11.00000000     -15.00000000     -16.00000000     -14.00000000     -23.10000000
         -27.80000000     -29.20000000
         151.00000000     151.00000000     151.00000000     151.00000000     116.00000000     111.00000000     106.00000000     101.00000000      96.00000000      91.00000000      86.00000000      76.00000000      70.00000000      67.00000000      61.00000000      60.00000000      56.00000000      51.00000000      47.00000000      41.00000000
          39.00000000      47.00000000      43.00000000      33.00000000      26.00000000     -24.10000000     -29.10000000     -34.10000000     -38.10000000     -43.10000000     -46.10000000     -49.10000000     -50.10000000     -51.10000000      -9.00000000     -74.10000000     -13.00000000     -14.00000000     -14.00000000     -23.00000000
         -27.40000000     -29.20000000
         151.00000000     151.00000000     151.00000000     121.00000000     121.00000000     116.00000000     111.00000000     106.00000000     101.00000000      96.00000000      94.00000000      83.00000000      75.00000000      71.00000000      65.00000000      61.00000000      54.00000000      49.00000000      61.00000000      58.00000000
          52.00000000      46.00000000      42.00000000      39.00000000      29.00000000      -9.10000000     -24.10000000     -29.10000000     -34.10000000     -39.10000000     -44.10000000     -49.10000000     -50.10000000     -51.10000000     -10.00000000     -11.00000000     -13.00000000     -13.00000000     -14.00000000     -23.30000000
         -29.00000000     -29.30000000
         151.00000000     141.00000000     131.00000000     121.00000000     126.00000000     121.00000000     116.00000000     111.00000000     111.00000000     106.00000000     103.00000000      93.00000000      91.00000000      88.00000000      84.00000000      77.00000000      74.00000000      69.00000000      63.00000000      58.00000000
          56.00000000      51.00000000      49.00000000      10.90000000       5.90000000       0.90000000      -9.10000000     -24.10000000     -34.10000000     -39.10000000     -44.10000000     -49.10000000     -50.10000000     -51.10000000     -10.00000000     -11.00000000     -12.00000000     -13.00000000     -14.00000000     -23.10000000
         -27.80000000     -29.20000000
         151.00000000     146.00000000     146.00000000     136.00000000     136.00000000     136.00000000     136.00000000     131.00000000     126.00000000     121.00000000     115.00000000     103.00000000      94.00000000      89.00000000      85.00000000      80.00000000      75.00000000      72.00000000      66.00000000      63.00000000
          59.00000000      56.00000000      51.00000000       0.90000000       0.90000000       0.90000000     -11.10000000     -24.10000000     -36.10000000     -41.10000000     -44.10000000     -49.10000000       1.00000000      -5.00000000     -10.00000000     -11.00000000     -12.00000000     -13.00000000     -17.00000000     -19.00000000
         -27.40000000     -29.20000000
         161.00000000     146.00000000     146.00000000     141.00000000     151.00000000     151.00000000     151.00000000     110.90000000     105.90000000     131.00000000     121.00000000     111.00000000      96.00000000      86.00000000      81.00000000      76.00000000      76.00000000      71.00000000      71.00000000      66.00000000
          66.00000000      -4.10000000      -7.10000000     -11.10000000     -15.10000000     -19.10000000     -21.10000000     -24.10000000      15.00000000      13.00000000      11.00000000       6.00000000       1.00000000      -4.00000000     -10.00000000     -11.00000000     -12.00000000     -13.00000000     -17.00000000     -19.00000000
         -29.00000000     -34.00000000
         161.00000000     151.00000000     151.00000000     151.00000000     151.00000000     151.00000000     151.00000000     151.00000000     151.00000000     103.90000000     102.90000000     121.00000000      91.00000000      86.00000000      81.00000000      81.00000000      85.00000000      45.90000000      35.90000000      25.90000000
           0.90000000      -4.10000000      -4.10000000       0.90000000       0.90000000      -4.10000000     -24.10000000     -29.10000000     -34.10000000      13.00000000       9.00000000       5.00000000       2.00000000      -4.00000000      -9.00000000     -11.00000000     -12.00000000     -13.00000000     -14.00000000     -17.00000000
         -27.80000000     -34.00000000
         151.00000000     151.00000000     151.00000000     151.00000000     151.00000000     151.00000000     151.00000000     151.00000000     151.00000000     151.00000000     103.90000000     102.90000000     100.90000000      89.00000000      89.00000000      70.90000000      60.90000000      50.90000000      35.90000000      25.90000000
          10.90000000       0.90000000      10.90000000      12.90000000      10.90000000       0.90000000     -24.10000000     -29.10000000      14.00000000      10.00000000       6.00000000       2.00000000      -1.00000000      -5.00000000     -11.00000000     -13.00000000     -13.00000000     -14.00000000     -14.00000000     -15.00000000
         -27.40000000     -34.00000000
         151.00000000     151.00000000     151.00000000     151.00000000     151.00000000     151.00000000     151.00000000     151.00000000     151.00000000     151.00000000     151.00000000     105.90000000     102.90000000     100.90000000      85.90000000      75.90000000      65.90000000      60.90000000      50.90000000      25.90000000
          10.90000000       8.90000000      10.90000000      12.90000000      10.90000000       0.90000000     -24.10000000     -29.10000000       1.00000000       1.00000000     -59.10000000       1.00000000      -5.00000000      -9.00000000     -14.00000000     -11.00000000     -11.00000000     -13.00000000     -14.00000000     -14.00000000
         -29.00000000     -34.00000000
         151.00000000     151.00000000     151.00000000     151.00000000     151.00000000     151.00000000     151.00000000     151.00000000     151.00000000     151.00000000     151.00000000     151.00000000     105.90000000     102.90000000     100.90000000      75.90000000      65.90000000      60.90000000      50.90000000      25.90000000
          15.90000000      12.90000000      10.90000000      12.90000000       0.90000000     -14.10000000     -24.10000000     -29.10000000      11.00000000       2.00000000       1.00000000      -3.00000000      -8.00000000     -10.00000000     -54.10000000      -9.00000000      -9.00000000     -14.00000000     -14.00000000     -14.00000000
         -27.70000000     -29.20000000
         151.00000000     151.00000000     151.00000000     151.00000000     151.00000000     151.00000000     151.00000000     151.00000000     151.00000000     151.00000000     151.00000000     151.00000000     151.00000000     105.90000000     100.90000000      75.90000000      65.90000000      50.90000000      35.90000000      25.90000000
          15.90000000      12.90000000      10.90000000      10.90000000       0.90000000     -14.10000000     -21.10000000     -29.10000000     -39.10000000       6.00000000       0.00000000      -2.00000000      -4.00000000     -49.10000000     -54.10000000      -4.00000000     -12.00000000     -16.00000000      -9.00000000     -11.00000000
         -24.00000000     -29.10000000
         151.00000000     151.00000000     151.00000000     151.00000000     151.00000000     151.00000000     151.00000000     151.00000000     151.00000000     151.00000000     151.00000000     151.00000000     151.00000000     151.00000000     105.90000000     100.90000000      75.90000000      50.90000000      25.90000000      20.90000000
          15.90000000      12.90000000      10.90000000      10.90000000      -9.10000000     -24.10000000     -29.10000000     -34.10000000     -39.10000000     -44.10000000       6.00000000       6.00000000     -44.10000000      -4.00000000      -9.00000000     -10.00000000     -14.00000000     -16.00000000     -18.00000000      -9.00000000
         -24.00000000     -29.20000000
         151.00000000     151.00000000     151.00000000     151.00000000     151.00000000     151.00000000     151.00000000     151.00000000     151.00000000     151.00000000     151.00000000     151.00000000     151.00000000     151.00000000     102.90000000     100.90000000      75.90000000      40.90000000      35.90000000      27.90000000
          22.90000000      14.90000000      12.90000000      12.90000000     -11.10000000     -24.10000000     -29.10000000     -34.10000000     -39.10000000     -44.10000000      16.00000000       9.00000000       4.00000000       3.00000000      -1.00000000      -6.00000000     -14.00000000     -16.00000000     -18.00000000      -7.00000000
         -24.00000000     -29.30000000
         151.00000000     151.00000000     151.00000000     151.00000000     151.00000000     151.00000000     151.00000000     151.00000000     151.00000000     151.00000000     151.00000000     151.00000000     151.00000000     151.00000000     105.90000000     100.90000000      60.90000000      50.90000000      35.90000000      27.90000000
          25.90000000      14.90000000      12.90000000      12.90000000     -11.10000000     -24.10000000     -29.10000000     -34.10000000     -39.10000000      18.00000000      12.00000000       9.00000000       7.00000000       7.00000000      -0.20000000      -5.70000000     -10.00000000     -16.00000000     -18.00000000      -7.00000000
         -24.00000000     -29.20000000
         151.00000000     151.00000000     151.00000000     151.00000000     151.00000000     151.00000000     151.00000000     151.00000000     151.00000000     151.00000000     151.00000000     151.00000000     151.00000000     151.00000000     110.90000000     105.90000000      80.90000000      50.90000000      45.90000000      25.90000000
          20.90000000      20.90000000      13.90000000      12.90000000     -11.10000000     -24.10000000     -29.10000000      24.00000000      21.00000000      18.00000000      16.00000000      13.00000000      10.00000000       7.00000000       1.00000000      -3.00000000      -8.00000000     -13.00000000     -17.00000000      -4.00000000
         -21.00000000     -29.10000000
         151.00000000     151.00000000     151.00000000     151.00000000     151.00000000     151.00000000     151.00000000     151.00000000     151.00000000     151.00000000     151.00000000     151.00000000     151.00000000     151.00000000     120.90000000     115.90000000      90.90000000      60.90000000      45.90000000      35.90000000
          25.90000000      17.90000000      14.90000000      12.90000000     -11.10000000     -29.10000000      26.00000000      23.00000000      21.00000000      19.00000000      18.00000000      18.00000000      16.00000000      15.00000000       3.10010000       1.00000000      -7.00000000     -14.00000000     -17.00000000      -4.00000000
         -21.00000000     -24.00000000
         151.00000000     151.00000000     151.00000000     151.00000000     151.00000000     151.00000000     151.00000000     151.00000000     151.00000000     151.00000000     151.00000000     151.00000000     151.00000000     151.00000000     151.00000000     151.00000000     151.00000000     151.00000000     151.00000000     151.00000000
         151.00000000     151.00000000     151.00000000     151.00000000     -11.10000000      31.00000000      29.00000000      27.00000000      25.00000000      23.00000000      21.00000000      19.00000000      17.00000000      15.00000000      11.00000000       6.00000000      -4.00000000     -14.00000000     -19.00000000      -7.00000000
         -19.00000000     -29.00000000
         151.00000000     151.00000000     151.00000000     151.00000000     151.00000000     151.00000000     151.00000000     151.00000000     151.00000000     151.00000000     151.00000000     151.00000000     151.00000000     151.00000000     151.00000000     151.00000000     151.00000000     151.00000000     151.00000000     151.00000000
         151.00000000     151.00000000     151.00000000     151.00000000      36.00000000      36.00000000      29.00000000      27.00000000      25.00000000      23.00000000      21.00000000      19.00000000      16.00000000      11.00000000       6.00000000     -44.10000000       1.00000000      -9.00000000     -14.00000000      -7.00000000
         -14.00000000     -19.00000000
         151.00000000     151.00000000     151.00000000     151.00000000     151.00000000     151.00000000     151.00000000     151.00000000     151.00000000     151.00000000     151.00000000     151.00000000     151.00000000     151.00000000     151.00000000     151.00000000     151.00000000     151.00000000     151.00000000     151.00000000
         151.00000000     151.00000000     151.00000000     151.00000000      51.00000000      49.00000000      47.00000000      45.00000000      43.00000000      41.00000000      39.00000000      37.00000000      35.00000000      33.00000000      31.00000000     -44.10000000     -49.10000000     -59.10000000     -64.10000000      -7.00000000
         -14.00000000     -19.00000000
         151.00000000     151.00000000     151.00000000     151.00000000     151.00000000     151.00000000     151.00000000     151.00000000     151.00000000     151.00000000     151.00000000     151.00000000     151.00000000     151.00000000     151.00000000     151.00000000     151.00000000     151.00000000     151.00000000     151.00000000
         151.00000000     151.00000000     151.00000000     151.00000000      15.90000000      59.00000000      55.00000000      55.00000000      53.00000000      51.00000000      51.00000000      51.00000000      51.00000000     -44.10000000     -49.10000000     -44.10000000     151.00000000     151.00000000     151.00000000     151.00000000
         151.00000000     151.00000000
         151.00000000     151.00000000     151.00000000     151.00000000     151.00000000     151.00000000     151.00000000     151.00000000     151.00000000     151.00000000     151.00000000     151.00000000     151.00000000     151.00000000     151.00000000     151.00000000     151.00000000     151.00000000     151.00000000     151.00000000
         151.00000000     151.00000000     151.00000000     151.00000000      10.90000000       5.90000000       0.90000000      -4.10000000      -9.10000000     -14.10000000     -24.10000000     151.00000000     151.00000000     151.00000000     151.00000000     151.00000000     151.00000000     151.00000000     151.00000000     151.00000000
         151.00000000     151.00000000
    INTERNAL  FACTOR  1.0
         151.00000000     151.00000000     151.00000000     151.00000000     151.00000000     151.00000000     151.00000000     151.00000000     151.00000000     151.00000000     151.00000000     151.00000000     151.00000000     151.00000000     151.00000000     151.00000000     151.00000000     151.00000000     151.00000000     151.00000000
         151.00000000     151.00000000     151.00000000     151.00000000     151.00000000     151.00000000     151.00000000     151.00000000      20.80000000      -6.00000000     -14.00000000     -21.00000000     -24.00000000     -29.21000000     -33.88000000     -38.98000000     -45.20000000     -50.07000000     -55.58000000     -63.29000000
         -68.54000000     -69.37000000
         151.00000000     151.00000000     151.00000000     151.00000000     151.00000000     151.00000000     151.00000000     151.00000000     151.00000000     151.00000000     151.00000000     151.00000000     151.00000000     151.00000000     151.00000000     151.00000000     151.00000000     151.00000000     151.00000000     151.00000000
         151.00000000     151.00000000     151.00000000     151.00000000     151.00000000     151.00000000     151.00000000      20.80000000      -1.10000000     -11.00000000     -17.00000000     -22.00000000     -26.00000000     -30.07000000     -36.00000000     -39.81000000     -45.71000000     -51.00000000     -56.37000000     -64.54000000
         -69.00000000     -69.57000000
         151.00000000     151.00000000     151.00000000     151.00000000     151.00000000     151.00000000     151.00000000     151.00000000     151.00000000     151.00000000     151.00000000     151.00000000     151.00000000     151.00000000     151.00000000     151.00000000     151.00000000     151.00000000     151.00000000     151.00000000
         151.00000000     151.00000000     151.00000000     151.00000000     151.00000000     151.00000000      20.80000000       5.90000000      -5.00000000     -13.00000000     -20.00000000     -24.00000000     -28.00000000     -31.78000000     -36.51000000     -41.54000000     -46.18000000     -51.08000000     -56.95000000     -63.43000000
         -68.56000000     -69.50000000