BEGIN options
  READASARRAYS
END options

BEGIN period  1
  recharge
    INTERNAL  FACTOR  1.0
         0.00000000       0.00000000       0.00000000       0.00000000       0.00000000       0.00000000       0.00000000       0.00000000       0.00000000       0.00000000       0.00000000       0.00000000       0.00000000       0.00000000       0.00000000       0.00000000       0.00000000       0.00000000       0.00000000       0.00000000
         0.00000000       0.00000000       0.00000000       0.00000000       0.00000000       0.00000000       0.00000000       0.00000000       0.00000000  1.90258752E-09  1.90258752E-09  1.42694064E-09  1.42694064E-09       0.00000000       0.00000000       0.00000000       0.00000000       0.00000000       0.00000000       0.00000000
         0.00000000       0.00000000
         0.00000000       0.00000000       0.00000000       0.00000000       0.00000000       0.00000000       0.00000000       0.00000000       0.00000000       0.00000000       0.00000000       0.00000000       0.00000000       0.00000000       0.00000000       0.00000000       0.00000000       0.00000000       0.00000000       0.00000000
         0.00000000       0.00000000       0.00000000       0.00000000       0.00000000       0.00000000       0.00000000       0.00000000  1.90258752E-09  1.90258752E-09  1.90258752E-09  1.42694064E-09  1.42694064E-09       0.00000000       0.00000000       0.00000000       0.00000000       0.00000000       0.00000000       0.00000000
         0.00000000       0.00000000
         0.00000000       0.00000000       0.00000000       0.00000000       0.00000000       0.00000000       0.00000000       0.00000000       0.00000000       0.00000000       0.00000000       0.00000000       0.00000000       0.00000000       0.00000000       0.00000000       0.00000000       0.00000000       0.00000000       0.00000000
         0.00000000       0.00000000       0.00000000       0.00000000       0.00000000       0.00000000       0.00000000  1.90258752E-09  1.80745814E-09  1.80745814E-09  1.90258752E-09  1.42694064E-09  1.90258752E-09       0.00000000       0.00000000       0.00000000       0.00000000       0.00000000       0.00000000       0.00000000
         0.00000000       0.00000000
         0.00000000       0.00000000       0.00000000       0.00000000       0.00000000       0.00000000       0.00000000       0.00000000       0.00000000       0.00000000       0.00000000       0.00000000       0.00000000       0.00000000       0.00000000       0.00000000       0.00000000       0.00000000       0.00000000       0.00000000
         0.00000000       0.00000000       0.00000000       0.00000000       0.00000000       0.00000000  3.80517504E-09  1.90258752E-09  1.80745814E-09  1.80745814E-09  5.40651953E-09  1.90258752E-09  1.90258752E-09  1.90258752E-09  1.90258752E-09  1.90258752E-09       0.00000000       0.00000000       0.00000000       0.00000000
         0.00000000       0.00000000
         0.00000000       0.00000000       0.00000000       0.00000000       0.00000000       0.00000000       0.00000000       0.00000000       0.00000000       0.00000000       0.00000000       0.00000000       0.00000000       0.00000000       0.00000000       0.00000000       0.00000000       0.00000000       0.00000000       0.00000000
         0.00000000       0.00000000  3.80517504E-09  3.80517504E-09  3.80517504E-09  3.80517504E-09  3.80517504E-09  3.80517504E-09  3.71004566E-09  7.30910705E-09  7.30910705E-09  1.90258752E-09  1.90258752E-09  1.90258752E-09  1.90258752E-09  1.90258752E-09       0.00000000       0.00000000       0.00000000       0.00000000
         0.00000000       0.00000000
         0.00000000       0.00000000       0.00000000       0.00000000       0.00000000       0.00000000       0.00000000       0.00000000       0.00000000       0.00000000       0.00000000       0.00000000       0.00000000       0.00000000       0.00000000       0.00000000       0.00000000       0.00000000       0.00000000       0.00000000
         0.00000000       0.00000000  3.80517504E-09  3.80517504E-09  3.80517504E-09  3.80517504E-09  3.80517504E-09  3.80517504E-09  3.80517504E-09  3.80517504E-09  7.30910705E-09  5.40651953E-09  1.90258752E-09  1.90258752E-09  1.90258752E-09  1.90258752E-09       0.00000000       0.00000000       0.00000000       0.00000000
         0.00000000       0.00000000
         0.00000000       0.00000000       0.00000000       0.00000000       0.00000000       0.00000000       0.00000000       0.00000000       0.00000000       0.00000000       0.00000000       0.00000000       0.00000000       0.00000000       0.00000000       0.00000000       0.00000000       0.00000000       0.00000000       0.00000000
         0.00000000       0.00000000  3.42465753E-09  3.42465753E-09  3.42465753E-09  3.80517504E-09  3.80517504E-09  3.80517504E-09  3.80517504E-09  3.80517504E-09  1.90258752E-09  5.40651953E-09  1.90258752E-09  1.90258752E-09  1.90258752E-09  1.90258752E-09  1.90258752E-09  1.90258752E-09       0.00000000       0.00000000
         0.00000000       0.00000000
         0.00000000       0.00000000       0.00000000       0.00000000       0.00000000       0.00000000       0.00000000       0.00000000       0.00000000       0.00000000       0.00000000       0.00000000       0.00000000       0.00000000       0.00000000       0.00000000       0.00000000       0.00000000       0.00000000       0.00000000
    3.42465753E-09  3.42465753E-09  3.42465753E-09  1.04642314E-09  1.04642314E-09  3.80517504E-09  3.80517504E-09  3.80517504E-09  3.80517504E-09  3.80517504E-09  1.90258752E-09  5.40651953E-09  5.40651953E-09  5.40651953E-09  1.90258752E-09  1.90258752E-09  1.90258752E-09  1.90258752E-09       0.00000000       0.00000000
         0.00000000       0.00000000
         0.00000000       0.00000000       0.00000000       0.00000000       0.00000000       0.00000000       0.00000000       0.00000000       0.00000000       0.00000000       0.00000000       0.00000000       0.00000000       0.00000000       0.00000000       0.00000000       0.00000000       0.00000000       0.00000000       0.00000000
    1.04642314E-09  1.04642314E-09  1.04642314E-09  1.04642314E-09  3.42465753E-09  3.80517504E-09  3.80517504E-09  3.80517504E-09  3.80517504E-09  3.80517504E-09  1.90258752E-09  5.40651953E-09  5.40651953E-09  5.40651953E-09  5.40651953E-09  5.40651953E-09  1.90258752E-09  1.90258752E-09       0.00000000       0.00000000
         0.00000000       0.00000000
         0.00000000       0.00000000       0.00000000       0.00000000       0.00000000       0.00000000       0.00000000       0.00000000       0.00000000       0.00000000       0.00000000       0.00000000       0.00000000       0.00000000       0.00000000       0.00000000       0.00000000       0.00000000       0.00000000       0.00000000
    3.42465753E-09  3.42465753E-09  3.42465753E-09  3.42465753E-09  3.42465753E-09  1.20497210E-09  5.08942161E-09  3.42465753E-09  3.42465753E-09  3.80517504E-09  5.40651953E-09  5.40651953E-09  5.40651953E-09  5.40651953E-09  5.40651953E-09  5.40651953E-09  5.40651953E-09  1.90258752E-09       0.00000000       0.00000000
         0.00000000       0.00000000
         0.00000000       0.00000000       0.00000000       0.00000000       0.00000000       0.00000000       0.00000000       0.00000000       0.00000000       0.00000000       0.00000000       0.00000000       0.00000000       0.00000000       0.00000000       0.00000000       0.00000000       0.00000000       0.00000000       0.00000000
         0.00000000       0.00000000       0.00000000  1.04642314E-09  1.20497210E-09  1.20497210E-09  5.08942161E-09  7.30910705E-09  7.30910705E-09  3.42465753E-09  5.40651953E-09  5.40651953E-09  5.40651953E-09  5.40651953E-09  5.40651953E-09  5.40651953E-09  5.40651953E-09  1.90258752E-09       0.00000000       0.00000000
         0.00000000       0.00000000
         0.00000000       0.00000000       0.00000000       0.00000000       0.00000000       0.00000000       0.00000000       0.00000000       0.00000000       0.00000000       0.00000000       0.00000000       0.00000000       0.00000000       0.00000000       0.00000000       0.00000000       0.00000000       0.00000000       0.00000000
         0.00000000       0.00000000       0.00000000       0.00000000       0.00000000       0.00000000  1.58548960E-09  7.30910705E-09  7.30910705E-09  6.04071537E-09  2.53678336E-09  6.04071537E-09  6.04071537E-09  6.04071537E-09  5.40651953E-09  5.40651953E-09  5.40651953E-09  1.90258752E-09       0.00000000       0.00000000
         0.00000000       0.00000000
         0.00000000       0.00000000       0.00000000       0.00000000       0.00000000       0.00000000       0.00000000       0.00000000       0.00000000       0.00000000       0.00000000       0.00000000       0.00000000       0.00000000       0.00000000       0.00000000       0.00000000       0.00000000       0.00000000       0.00000000
         0.00000000       0.00000000       0.00000000       0.00000000       0.00000000       0.00000000  2.44165398E-09  2.53678336E-09  6.04071537E-09  6.04071537E-09  6.04071537E-09  6.04071537E-09  6.04071537E-09  6.04071537E-09  5.40651953E-09  5.40651953E-09  5.40651953E-09  1.90258752E-09       0.00000000       0.00000000
         0.00000000       0.00000000
         0.00000000       0.00000000       0.00000000       0.00000000       0.00000000       0.00000000       0.00000000       0.00000000       0.00000000       0.00000000       0.00000000       0.00000000       0.00000000       0.00000000       0.00000000       0.00000000       0.00000000       0.00000000       0.00000000       0.00000000
         0.00000000       0.00000000       0.00000000       0.00000000       0.00000000       0.00000000  2.44165398E-09  2.44165398E-09  2.44165398E-09  6.04071537E-09  6.04071537E-09  6.04071537E-09  6.04071537E-09  6.04071537E-09  5.40651953E-09  5.40651953E-09  5.40651953E-09  1.90258752E-09       0.00000000       0.00000000
         0.00000000       0.00000000
         0.00000000       0.00000000       0.00000000       0.00000000       0.00000000       0.00000000       0.00000000       0.00000000       0.00000000       0.00000000       0.00000000       0.00000000       0.00000000       0.00000000       0.00000000       0.00000000       0.00000000       0.00000000       0.00000000       0.00000000
         0.00000000       0.00000000       0.00000000       0.00000000       0.00000000  2.53678336E-09  2.44165398E-09  2.44165398E-09  2.44165398E-09  6.04071537E-09  6.04071537E-09  5.40651953E-09  5.40651953E-09  5.40651953E-09  5.40651953E-09  5.40651953E-09  5.40651953E-09  1.90258752E-09       0.00000000       0.00000000
         0.00000000       0.00000000
         0.00000000       0.00000000       0.00000000       0.00000000       0.00000000       0.00000000       0.00000000       0.00000000       0.00000000       0.00000000       0.00000000       0.00000000       0.00000000       0.00000000       0.00000000       0.00000000       0.00000000       0.00000000       0.00000000       0.00000000
         0.00000000       0.00000000       0.00000000  2.53678336E-09  2.44165398E-09  2.53678336E-09  2.44165398E-09  2.44165398E-09  2.44165398E-09  2.44165398E-09  6.04071537E-09  5.40651953E-09  5.40651953E-09  5.40651953E-09  5.40651953E-09  5.40651953E-09  5.40651953E-09  1.90258752E-09       0.00000000       0.00000000
         0.00000000       0.00000000
         0.00000000       0.00000000       0.00000000       0.00000000       0.00000000       0.00000000       0.00000000       0.00000000       0.00000000       0.00000000       0.00000000       0.00000000       0.00000000       0.00000000       0.00000000       0.00000000       0.00000000       0.00000000  1.33181126E-09  2.44165398E-09
    2.44165398E-09  2.44165398E-09  2.44165398E-09  2.44165398E-09  2.44165398E-09  2.53678336E-09  2.44165398E-09  2.44165398E-09  2.44165398E-09  2.44165398E-09       0.00000000       0.00000000       0.00000000       0.00000000       0.00000000  1.90258752E-09  1.90258752E-09  1.90258752E-09       0.00000000       0.00000000
         0.00000000       0.00000000
         0.00000000       0.00000000       0.00000000       0.00000000       0.00000000       0.00000000  3.71004566E-09  3.71004566E-09  3.71004566E-09  3.71004566E-09  3.71004566E-09  3.71004566E-09  3.71004566E-09  3.71004566E-09  1.33181126E-09  1.33181126E-09  1.33181126E-09  1.33181126E-09  1.33181126E-09  2.53678336E-09
    2.44165398E-09  2.44165398E-09  2.44165398E-09  2.53678336E-09  2.53678336E-09  2.53678336E-09       0.00000000       0.00000000       0.00000000       0.00000000       0.00000000       0.00000000       0.00000000       0.00000000  7.92744800E-10  7.92744800E-10  7.92744800E-10  7.92744800E-10       0.00000000       0.00000000
         0.00000000       0.00000000
         0.00000000       0.00000000       0.00000000       0.00000000  3.71004566E-09  3.71004566E-09  3.71004566E-09  3.71004566E-09  3.71004566E-09  3.71004566E-09  -9.51293760E-09  -9.51293760E-09  -9.51293760E-09  3.71004566E-09  3.71004566E-09  3.71004566E-09  2.44165398E-09  2.44165398E-09  2.53678336E-09  2.53678336E-09
    2.44165398E-09  2.44165398E-09  2.44165398E-09  2.44165398E-09  2.53678336E-09       0.00000000       0.00000000       0.00000000       0.00000000       0.00000000       0.00000000       0.00000000       0.00000000       0.00000000  7.92744800E-10       0.00000000  3.80517504E-09  3.80517504E-09       0.00000000       0.00000000
         0.00000000       0.00000000
         0.00000000       0.00000000       0.00000000  3.80517504E-09  3.71004566E-09  3.71004566E-09  3.71004566E-09  3.71004566E-09  3.71004566E-09  3.71004566E-09  -9.51293760E-09  -9.51293760E-09  -9.51293760E-09  3.71004566E-09  3.71004566E-09  3.71004566E-09  2.44165398E-09  2.53678336E-09  2.44165398E-09  2.44165398E-09
    2.44165398E-09  2.44165398E-09  2.44165398E-09  2.44165398E-09  2.53678336E-09       0.00000000       0.00000000       0.00000000       0.00000000       0.00000000       0.00000000       0.00000000       0.00000000       0.00000000  7.92744800E-10  3.80517504E-09  3.80517504E-09  3.80517504E-09       0.00000000       0.00000000
         0.00000000       0.00000000
         0.00000000  3.80517504E-09  3.80517504E-09  3.71004566E-09  3.71004566E-09  3.71004566E-09  3.71004566E-09  3.71004566E-09  3.71004566E-09  3.71004566E-09  -9.51293760E-09  -9.51293760E-09  -9.51293760E-09  3.71004566E-09  3.71004566E-09  3.71004566E-09  2.44165398E-09  2.44165398E-09  2.44165398E-09  2.44165398E-09
    2.53678336E-09  2.44165398E-09  2.44165398E-09       0.00000000       0.00000000       0.00000000       0.00000000       0.00000000       0.00000000       0.00000000       0.00000000       0.00000000       0.00000000       0.00000000  7.92744800E-10  3.80517504E-09  3.80517504E-09  3.80517504E-09       0.00000000       0.00000000
         0.00000000       0.00000000
    3.80517504E-09  3.71004566E-09  3.71004566E-09  3.71004566E-09  3.71004566E-09  3.71004566E-09  3.71004566E-09  3.71004566E-09  3.71004566E-09  3.71004566E-09  -9.51293760E-09  -9.51293760E-09  -9.51293760E-09  3.71004566E-09  3.71004566E-09  3.71004566E-09  2.44165398E-09  2.44165398E-09  2.44165398E-09  2.44165398E-09
    2.53678336E-09  2.44165398E-09  2.53678336E-09       0.00000000       0.00000000       0.00000000       0.00000000       0.00000000       0.00000000       0.00000000       0.00000000       0.00000000  3.80517504E-09  3.71004566E-09  3.71004566E-09  3.80517504E-09  3.80517504E-09  3.80517504E-09       0.00000000       0.00000000
         0.00000000       0.00000000
    3.71004566E-09  3.71004566E-09  3.71004566E-09  3.71004566E-09       0.00000000       0.00000000       0.00000000       0.00000000       0.00000000  3.71004566E-09  3.71004566E-09  3.71004566E-09  3.71004566E-09  3.71004566E-09  3.71004566E-09  3.71004566E-09  2.44165398E-09  2.44165398E-09  2.44165398E-09  2.44165398E-09
    2.53678336E-09       0.00000000       0.00000000       0.00000000       0.00000000       0.00000000       0.00000000       0.00000000  3.80517504E-09  3.80517504E-09  3.80517504E-09  7.30910705E-09  7.30910705E-09  3.71004566E-09  3.71004566E-09  3.80517504E-09  3.80517504E-09  3.80517504E-09       0.00000000       0.00000000
         0.00000000       0.00000000
    3.80517504E-09       0.00000000       0.00000000       0.00000000       0.00000000       0.00000000       0.00000000       0.00000000       0.00000000       0.00000000       0.00000000  3.71004566E-09  3.71004566E-09  3.71004566E-09  3.71004566E-09  3.71004566E-09  2.44165398E-09       0.00000000       0.00000000       0.00000000
         0.00000000       0.00000000       0.00000000       0.00000000       0.00000000       0.00000000       0.00000000       0.00000000       0.00000000  1.42694064E-09  7.30910705E-09  7.30910705E-09  7.30910705E-09  7.30910705E-09  3.71004566E-09  3.80517504E-09  3.80517504E-09  3.80517504E-09       0.00000000       0.00000000
         0.00000000       0.00000000
         0.00000000       0.00000000       0.00000000       0.00000000       0.00000000       0.00000000       0.00000000       0.00000000       0.00000000       0.00000000       0.00000000       0.00000000       0.00000000  3.71004566E-09  1.33181126E-09       0.00000000       0.00000000       0.00000000       0.00000000       0.00000000
         0.00000000       0.00000000       0.00000000       0.00000000       0.00000000       0.00000000       0.00000000       0.00000000  3.80517504E-09  3.80517504E-09  3.80517504E-09  7.30910705E-09  7.30910705E-09  7.30910705E-09  3.71004566E-09  3.71004566E-09  3.80517504E-09  3.80517504E-09       0.00000000       0.00000000
         0.00000000       0.00000000
         0.00000000       0.00000000       0.00000000       0.00000000       0.00000000       0.00000000       0.00000000       0.00000000       0.00000000       0.00000000       0.00000000       0.00000000       0.00000000       0.00000000       0.00000000       0.00000000       0.00000000       0.00000000       0.00000000       0.00000000
         0.00000000       0.00000000       0.00000000       0.00000000       0.00000000       0.00000000       0.00000000       0.00000000  7.92744800E-10  3.80517504E-09       0.00000000  3.80517504E-09  3.80517504E-09  7.30910705E-09  3.71004566E-09  3.71004566E-09  3.80517504E-09  3.80517504E-09       0.00000000       0.00000000
         0.00000000       0.00000000
         0.00000000       0.00000000       0.00000000       0.00000000       0.00000000       0.00000000       0.00000000       0.00000000       0.00000000       0.00000000       0.00000000       0.00000000       0.00000000       0.00000000       0.00000000       0.00000000       0.00000000       0.00000000       0.00000000       0.00000000
         0.00000000       0.00000000       0.00000000       0.00000000       0.00000000       0.00000000       0.00000000       0.00000000  7.92744800E-10  3.80517504E-09  3.80517504E-09  3.80517504E-09  3.71004566E-09  3.71004566E-09       0.00000000  3.71004566E-09  3.71004566E-09  3.80517504E-09       0.00000000       0.00000000
         0.00000000       0.00000000
         0.00000000       0.00000000       0.00000000       0.00000000       0.00000000       0.00000000       0.00000000       0.00000000       0.00000000       0.00000000       0.00000000       0.00000000       0.00000000       0.00000000       0.00000000       0.00000000       0.00000000       0.00000000       0.00000000       0.00000000
         0.00000000       0.00000000       0.00000000       0.00000000       0.00000000       0.00000000       0.00000000       0.00000000       0.00000000  3.80517504E-09  3.80517504E-09  3.71004566E-09  3.71004566E-09       0.00000000       0.00000000  3.80517504E-09  3.80517504E-09  3.80517504E-09       0.00000000       0.00000000
         0.00000000       0.00000000
         0.00000000       0.00000000       0.00000000       0.00000000       0.00000000       0.00000000       0.00000000       0.00000000       0.00000000       0.00000000       0.00000000       0.00000000       0.00000000       0.00000000       0.00000000       0.00000000       0.00000000       0.00000000       0.00000000       0.00000000
         0.00000000       0.00000000       0.00000000       0.00000000       0.00000000       0.00000000       0.00000000       0.00000000       0.00000000       0.00000000  3.80517504E-09  3.80517504E-09       0.00000000  3.80517504E-09  5.40651953E-09  5.40651953E-09  5.40651953E-09  7.30910705E-09  7.30910705E-09       0.00000000
         0.00000000       0.00000000
         0.00000000       0.00000000       0.00000000       0.00000000       0.00000000       0.00000000       0.00000000       0.00000000       0.00000000       0.00000000       0.00000000       0.00000000       0.00000000       0.00000000       0.00000000       0.00000000       0.00000000       0.00000000       0.00000000       0.00000000
         0.00000000       0.00000000       0.00000000       0.00000000       0.00000000       0.00000000       0.00000000       0.00000000       0.00000000       0.00000000  3.80517504E-09  3.71004566E-09  3.71004566E-09  3.71004566E-09  5.40651953E-09  5.40651953E-09  5.40651953E-09  7.30910705E-09  7.30910705E-09       0.00000000
         0.00000000       0.00000000
         0.00000000       0.00000000       0.00000000       0.00000000       0.00000000       0.00000000       0.00000000       0.00000000       0.00000000       0.00000000       0.00000000       0.00000000       0.00000000       0.00000000       0.00000000       0.00000000       0.00000000       0.00000000       0.00000000       0.00000000
         0.00000000       0.00000000       0.00000000       0.00000000       0.00000000       0.00000000       0.00000000       0.00000000       0.00000000  3.80517504E-09  3.71004566E-09  3.71004566E-09  3.71004566E-09  3.71004566E-09  1.90258752E-09  1.90258752E-09  1.80745814E-09  3.71004566E-09  3.80517504E-09       0.00000000
         0.00000000       0.00000000
         0.00000000       0.00000000       0.00000000       0.00000000       0.00000000       0.00000000       0.00000000       0.00000000       0.00000000       0.00000000       0.00000000       0.00000000       0.00000000       0.00000000       0.00000000       0.00000000       0.00000000       0.00000000       0.00000000       0.00000000
         0.00000000       0.00000000       0.00000000       0.00000000       0.00000000       0.00000000       0.00000000  7.92744800E-10  7.92744800E-10  3.71004566E-09  3.71004566E-09  3.71004566E-09  3.71004566E-09  3.71004566E-09  1.90258752E-09  1.90258752E-09  1.90258752E-09  3.80517504E-09  3.80517504E-09       0.00000000
         0.00000000       0.00000000
         0.00000000       0.00000000       0.00000000       0.00000000       0.00000000       0.00000000       0.00000000       0.00000000       0.00000000       0.00000000       0.00000000       0.00000000       0.00000000       0.00000000       0.00000000       0.00000000       0.00000000       0.00000000       0.00000000       0.00000000
         0.00000000       0.00000000       0.00000000       0.00000000       0.00000000       0.00000000  7.92744800E-10  6.97615424E-10  6.97615424E-10  3.71004566E-09  3.71004566E-09  3.71004566E-09  3.71004566E-09  3.80517504E-09  1.90258752E-09  1.90258752E-09  1.90258752E-09  3.80517504E-09  3.80517504E-09       0.00000000
         0.00000000       0.00000000
         0.00000000       0.00000000       0.00000000       0.00000000       0.00000000       0.00000000       0.00000000       0.00000000       0.00000000       0.00000000       0.00000000       0.00000000       0.00000000       0.00000000       0.00000000       0.00000000       0.00000000       0.00000000       0.00000000       0.00000000
         0.00000000       0.00000000       0.00000000       0.00000000       0.00000000  7.92744800E-10  6.97615424E-10  7.92744800E-10  7.92744800E-10  3.80517504E-09  3.80517504E-09  3.80517504E-09  3.80517504E-09  3.71004566E-09  1.80745814E-09  1.80745814E-09  1.90258752E-09  3.80517504E-09  3.80517504E-09       0.00000000
         0.00000000       0.00000000
         0.00000000       0.00000000       0.00000000       0.00000000       0.00000000       0.00000000       0.00000000       0.00000000       0.00000000       0.00000000       0.00000000       0.00000000       0.00000000       0.00000000       0.00000000       0.00000000       0.00000000       0.00000000       0.00000000       0.00000000
         0.00000000       0.00000000       0.00000000       0.00000000  6.97615424E-10  6.97615424E-10  7.92744800E-10  7.92744800E-10  7.92744800E-10  3.80517504E-09  3.80517504E-09  3.80517504E-09  3.80517504E-09  3.80517504E-09  3.80517504E-09       0.00000000  3.80517504E-09  1.90258752E-09  1.90258752E-09       0.00000000
         0.00000000       0.00000000
         0.00000000       0.00000000       0.00000000       0.00000000       0.00000000       0.00000000       0.00000000       0.00000000       0.00000000       0.00000000       0.00000000       0.00000000       0.00000000       0.00000000       0.00000000       0.00000000       0.00000000       0.00000000       0.00000000       0.00000000
         0.00000000       0.00000000       0.00000000       0.00000000  6.97615424E-10  7.92744800E-10  3.80517504E-09  3.80517504E-09  3.80517504E-09  3.80517504E-09  3.80517504E-09  3.80517504E-09  3.80517504E-09  3.80517504E-09  3.80517504E-09       0.00000000       0.00000000       0.00000000       0.00000000       0.00000000
         0.00000000       0.00000000
         0.00000000       0.00000000       0.00000000       0.00000000       0.00000000       0.00000000       0.00000000       0.00000000       0.00000000       0.00000000       0.00000000       0.00000000       0.00000000       0.00000000       0.00000000       0.00000000       0.00000000       0.00000000       0.00000000       0.00000000
         0.00000000       0.00000000       0.00000000       0.00000000       0.00000000  3.80517504E-09  3.80517504E-09  3.80517504E-09  3.80517504E-09  3.80517504E-09  3.80517504E-09  3.80517504E-09  3.80517504E-09       0.00000000       0.00000000       0.00000000       0.00000000       0.00000000       0.00000000       0.00000000
         0.00000000       0.00000000
         0.00000000       0.00000000       0.00000000       0.00000000       0.00000000       0.00000000       0.00000000       0.00000000       0.00000000       0.00000000       0.00000000       0.00000000       0.00000000       0.00000000       0.00000000       0.00000000       0.00000000       0.00000000       0.00000000       0.00000000
         0.00000000       0.00000000       0.00000000       0.00000000       0.00000000       0.00000000       0.00000000       0.00000000       0.00000000       0.00000000       0.00000000       0.00000000       0.00000000       0.00000000       0.00000000       0.00000000       0.00000000       0.00000000       0.00000000       0.00000000
         0.00000000       0.00000000
END period  1

