BEGIN options
  FIXED_CELL
  SAVE_FLOWS
END options

BEGIN dimensions
  MAXBOUND  834
END dimensions

BEGIN period  1
  1 1 30  1.90258752E-09
  1 1 31  1.90258752E-09
  1 1 32  1.42694064E-09
  1 1 33  1.42694064E-09
  1 2 29  1.90258752E-09
  1 2 30  1.90258752E-09
  1 2 31  1.90258752E-09
  1 2 32  1.42694064E-09
  1 2 33  1.42694064E-09
  1 3 28  1.90258752E-09
  1 3 29  1.99771689E-09
  1 3 30  1.99771689E-09
  1 3 31  1.90258752E-09
  1 3 32  1.42694064E-09
  1 3 33  1.90258752E-09
  1 4 27  3.80517504E-09
  1 4 28  1.90258752E-09
  1 4 29  1.99771689E-09
  1 4 30  1.99771689E-09
  1 4 31  -1.58548960E-09
  1 4 32  1.90258752E-09
  1 4 33  1.90258752E-09
  1 4 34  1.90258752E-09
  1 4 35  1.90258752E-09
  1 4 36  1.90258752E-09
  1 5 23  3.80517504E-09
  1 5 24  3.80517504E-09
  1 5 25  3.80517504E-09
  1 5 26  3.80517504E-09
  1 5 27  3.80517504E-09
  1 5 28  3.80517504E-09
  1 5 29  3.90030441E-09
  1 5 30  3.17097920E-10
  1 5 31  3.17097920E-10
  1 5 32  1.90258752E-09
  1 5 33  1.90258752E-09
  1 5 34  1.90258752E-09
  1 5 35  1.90258752E-09
  1 5 36  1.90258752E-09
  1 6 23  3.80517504E-09
  1 6 24  3.80517504E-09
  1 6 25  3.80517504E-09
  1 6 26  3.80517504E-09
  1 6 27  3.80517504E-09
  1 6 28  3.80517504E-09
  1 6 29  3.80517504E-09
  1 6 30  3.80517504E-09
  1 6 31  3.17097920E-10
  1 6 32  -1.58548960E-09
  1 6 33  1.90258752E-09
  1 6 34  1.90258752E-09
  1 6 35  1.90258752E-09
  1 6 36  1.90258752E-09
  1 7 23  4.18569254E-09
  1 7 24  4.18569254E-09
  1 7 25  4.18569254E-09
  1 7 26  3.80517504E-09
  1 7 27  3.80517504E-09
  1 7 28  3.80517504E-09
  1 7 29  3.80517504E-09
  1 7 30  3.80517504E-09
  1 7 31  1.90258752E-09
  1 7 32  -1.58548960E-09
  1 7 33  1.90258752E-09
  1 7 34  1.90258752E-09
  1 7 35  1.90258752E-09
  1 7 36  1.90258752E-09
  1 7 37  1.90258752E-09
  1 7 38  1.90258752E-09
  1 8 21  4.18569254E-09
  1 8 22  4.18569254E-09
  1 8 23  4.18569254E-09
  1 8 24  1.80745814E-09
  1 8 25  1.80745814E-09
  1 8 26  3.80517504E-09
  1 8 27  3.80517504E-09
  1 8 28  3.80517504E-09
  1 8 29  3.80517504E-09
  1 8 30  3.80517504E-09
  1 8 31  1.90258752E-09
  1 8 32  -1.58548960E-09
  1 8 33  -1.58548960E-09
  1 8 34  -1.58548960E-09
  1 8 35  1.90258752E-09
  1 8 36  1.90258752E-09
  1 8 37  1.90258752E-09
  1 8 38  1.90258752E-09
  1 9 21  1.80745814E-09
  1 9 22  1.80745814E-09
  1 9 23  1.80745814E-09
  1 9 24  1.80745814E-09
  1 9 25  4.18569254E-09
  1 9 26  3.80517504E-09
  1 9 27  3.80517504E-09
  1 9 28  3.80517504E-09
  1 9 29  3.80517504E-09
  1 9 30  3.80517504E-09
  1 9 31  1.90258752E-09
  1 9 32  -1.58548960E-09
  1 9 33  -1.58548960E-09
  1 9 34  -1.58548960E-09
  1 9 35  -1.58548960E-09
  1 9 36  -1.58548960E-09
  1 9 37  1.90258752E-09
  1 9 38  1.90258752E-09
  1 10 21  4.18569254E-09
  1 10 22  4.18569254E-09
  1 10 23  4.18569254E-09
  1 10 24  4.18569254E-09
  1 10 25  4.18569254E-09
  1 10 26  1.96600710E-09
  1 10 27  -1.90258752E-09
  1 10 28  4.18569254E-09
  1 10 29  4.18569254E-09
  1 10 30  3.80517504E-09
  1 10 31  -1.58548960E-09
  1 10 32  -1.58548960E-09
  1 10 33  -1.58548960E-09
  1 10 34  -1.58548960E-09
  1 10 35  -1.58548960E-09
  1 10 36  -1.58548960E-09
  1 10 37  -1.58548960E-09
  1 10 38  1.90258752E-09
  1 11 24  1.80745814E-09
  1 11 25  1.96600710E-09
  1 11 26  1.96600710E-09
  1 11 27  -1.90258752E-09
  1 11 28  3.17097920E-10
  1 11 29  3.17097920E-10
  1 11 30  4.18569254E-09
  1 11 31  -1.58548960E-09
  1 11 32  -1.58548960E-09
  1 11 33  -1.58548960E-09
  1 11 34  -1.58548960E-09
  1 11 35  -1.58548960E-09
  1 11 36  -1.58548960E-09
  1 11 37  -1.58548960E-09
  1 11 38  1.90258752E-09
  1 12 27  1.58548960E-09
  1 12 28  3.17097920E-10
  1 12 29  3.17097920E-10
  1 12 30  -9.51293760E-10
  1 12 31  2.53678336E-09
  1 12 32  -9.51293760E-10
  1 12 33  -9.51293760E-10
  1 12 34  -9.51293760E-10
  1 12 35  -1.58548960E-09
  1 12 36  -1.58548960E-09
  1 12 37  -1.58548960E-09
  1 12 38  1.90258752E-09
  1 13 27  3.07584982E-09
  1 13 28  2.53678336E-09
  1 13 29  -9.51293760E-10
  1 13 30  -9.51293760E-10
  1 13 31  -9.51293760E-10
  1 13 32  -9.51293760E-10
  1 13 33  -9.51293760E-10
  1 13 34  -9.51293760E-10
  1 13 35  -1.58548960E-09
  1 13 36  -1.58548960E-09
  1 13 37  -1.58548960E-09
  1 13 38  1.90258752E-09
  1 14 27  3.07584982E-09
  1 14 28  3.07584982E-09
  1 14 29  3.07584982E-09
  1 14 30  -9.51293760E-10
  1 14 31  -9.51293760E-10
  1 14 32  -9.51293760E-10
  1 14 33  -9.51293760E-10
  1 14 34  -9.51293760E-10
  1 14 35  -1.58548960E-09
  1 14 36  -1.58548960E-09
  1 14 37  -1.58548960E-09
  1 14 38  1.90258752E-09
  1 15 26  2.53678336E-09
  1 15 27  3.07584982E-09
  1 15 28  3.07584982E-09
  1 15 29  3.07584982E-09
  1 15 30  -9.51293760E-10
  1 15 31  -9.51293760E-10
  1 15 32  -1.58548960E-09
  1 15 33  -1.58548960E-09
  1 15 34  -1.58548960E-09
  1 15 35  -1.58548960E-09
  1 15 36  -1.58548960E-09
  1 15 37  -1.58548960E-09
  1 15 38  1.90258752E-09
  1 16 24  2.53678336E-09
  1 16 25  3.07584982E-09
  1 16 26  2.53678336E-09
  1 16 27  3.07584982E-09
  1 16 28  3.07584982E-09
  1 16 29  3.07584982E-09
  1 16 30  3.07584982E-09
  1 16 31  -9.51293760E-10
  1 16 32  -1.58548960E-09
  1 16 33  -1.58548960E-09
  1 16 34  -1.58548960E-09
  1 16 35  -1.58548960E-09
  1 16 36  -1.58548960E-09
  1 16 37  -1.58548960E-09
  1 16 38  1.90258752E-09
  1 17 19  1.96600710E-09
  1 17 20  3.07584982E-09
  1 17 21  3.07584982E-09
  1 17 22  3.07584982E-09
  1 17 23  3.07584982E-09
  1 17 24  3.07584982E-09
  1 17 25  3.07584982E-09
  1 17 26  2.53678336E-09
  1 17 27  3.07584982E-09
  1 17 28  3.07584982E-09
  1 17 29  3.07584982E-09
  1 17 30  3.07584982E-09
  1 17 36  1.90258752E-09
  1 17 37  1.90258752E-09
  1 17 38  1.90258752E-09
  1 18 7  4.34424150E-09
  1 18 8  4.34424150E-09
  1 18 9  4.34424150E-09
  1 18 10  4.34424150E-09
  1 18 11  4.34424150E-09
  1 18 12  4.34424150E-09
  1 18 13  4.34424150E-09
  1 18 14  4.34424150E-09
  1 18 15  1.96600710E-09
  1 18 16  1.96600710E-09
  1 18 17  1.96600710E-09
  1 18 18  1.96600710E-09
  1 18 19  1.96600710E-09
  1 18 20  2.53678336E-09
  1 18 21  3.07584982E-09
  1 18 22  3.07584982E-09
  1 18 23  3.07584982E-09
  1 18 24  2.53678336E-09
  1 18 25  2.53678336E-09
  1 18 26  2.53678336E-09
  1 18 35  7.92744800E-10
  1 18 36  7.92744800E-10
  1 18 37  7.92744800E-10
  1 18 38  7.92744800E-10
  1 19 5  4.34424150E-09
  1 19 6  4.34424150E-09
  1 19 7  4.34424150E-09
  1 19 8  4.34424150E-09
  1 19 9  4.34424150E-09
  1 19 10  4.34424150E-09
  1 19 11  1.71232877E-08
  1 19 12  1.71232877E-08
  1 19 13  1.71232877E-08
  1 19 14  4.34424150E-09
  1 19 15  4.34424150E-09
  1 19 16  4.34424150E-09
  1 19 17  3.07584982E-09
  1 19 18  3.07584982E-09
  1 19 19  2.53678336E-09
  1 19 20  2.53678336E-09
  1 19 21  3.07584982E-09
  1 19 22  3.07584982E-09
  1 19 23  3.07584982E-09
  1 19 24  3.07584982E-09
  1 19 25  2.53678336E-09
  1 19 35  7.92744800E-10
  1 19 37  3.80517504E-09
  1 19 38  3.80517504E-09
  1 20 4  3.80517504E-09
  1 20 5  4.34424150E-09
  1 20 6  4.34424150E-09
  1 20 7  4.34424150E-09
  1 20 8  4.34424150E-09
  1 20 9  4.34424150E-09
  1 20 10  4.34424150E-09
  1 20 11  1.71232877E-08
  1 20 12  1.71232877E-08
  1 20 13  1.71232877E-08
  1 20 14  4.34424150E-09
  1 20 15  4.34424150E-09
  1 20 16  4.34424150E-09
  1 20 17  3.07584982E-09
  1 20 18  2.53678336E-09
  1 20 19  3.07584982E-09
  1 20 20  3.07584982E-09
  1 20 21  3.07584982E-09
  1 20 22  3.07584982E-09
  1 20 23  3.07584982E-09
  1 20 24  3.07584982E-09
  1 20 25  2.53678336E-09
  1 20 35  7.92744800E-10
  1 20 36  3.80517504E-09
  1 20 37  3.80517504E-09
  1 20 38  3.80517504E-09
  1 21 2  3.80517504E-09
  1 21 3  3.80517504E-09
  1 21 4  4.34424150E-09
  1 21 5  4.34424150E-09
  1 21 6  4.34424150E-09
  1 21 7  4.34424150E-09
  1 21 8  4.34424150E-09
  1 21 9  4.34424150E-09
  1 21 10  4.34424150E-09
  1 21 11  1.71232877E-08
  1 21 12  1.71232877E-08
  1 21 13  1.71232877E-08
  1 21 14  4.34424150E-09
  1 21 15  4.34424150E-09
  1 21 16  4.34424150E-09
  1 21 17  3.07584982E-09
  1 21 18  3.07584982E-09
  1 21 19  3.07584982E-09
  1 21 20  3.07584982E-09
  1 21 21  2.53678336E-09
  1 21 22  3.07584982E-09
  1 21 23  3.07584982E-09
  1 21 35  7.92744800E-10
  1 21 36  3.80517504E-09
  1 21 37  3.80517504E-09
  1 21 38  3.80517504E-09
  1 22 1  3.80517504E-09
  1 22 2  4.34424150E-09
  1 22 3  4.34424150E-09
  1 22 4  4.34424150E-09
  1 22 5  4.34424150E-09
  1 22 6  4.34424150E-09
  1 22 7  4.34424150E-09
  1 22 8  4.34424150E-09
  1 22 9  4.34424150E-09
  1 22 10  4.34424150E-09
  1 22 11  1.71232877E-08
  1 22 12  1.71232877E-08
  1 22 13  1.71232877E-08
  1 22 14  4.34424150E-09
  1 22 15  4.34424150E-09
  1 22 16  4.34424150E-09
  1 22 17  3.07584982E-09
  1 22 18  3.07584982E-09
  1 22 19  3.07584982E-09
  1 22 20  3.07584982E-09
  1 22 21  2.53678336E-09
  1 22 22  3.07584982E-09
  1 22 23  2.53678336E-09
  1 22 33  3.80517504E-09
  1 22 34  3.90030441E-09
  1 22 35  3.90030441E-09
  1 22 36  3.80517504E-09
  1 22 37  3.80517504E-09
  1 22 38  3.80517504E-09
  1 23 1  4.34424150E-09
  1 23 2  4.34424150E-09
  1 23 3  4.34424150E-09
  1 23 4  4.34424150E-09
  1 23 10  4.34424150E-09
  1 23 11  4.34424150E-09
  1 23 12  4.34424150E-09
  1 23 13  4.34424150E-09
  1 23 14  4.34424150E-09
  1 23 15  4.34424150E-09
  1 23 16  4.34424150E-09
  1 23 17  3.07584982E-09
  1 23 18  3.07584982E-09
  1 23 19  3.07584982E-09
  1 23 20  3.07584982E-09
  1 23 21  2.53678336E-09
  1 23 29  3.80517504E-09
  1 23 30  3.80517504E-09
  1 23 31  3.80517504E-09
  1 23 32  3.17097920E-10
  1 23 33  3.17097920E-10
  1 23 34  3.90030441E-09
  1 23 35  3.90030441E-09
  1 23 36  3.80517504E-09
  1 23 37  3.80517504E-09
  1 23 38  3.80517504E-09
  1 24 1  3.80517504E-09
  1 24 12  4.34424150E-09
  1 24 13  4.34424150E-09
  1 24 14  4.34424150E-09
  1 24 15  4.34424150E-09
  1 24 16  4.34424150E-09
  1 24 17  3.07584982E-09
  1 24 30  1.42694064E-09
  1 24 31  3.17097920E-10
  1 24 32  3.17097920E-10
  1 24 33  3.17097920E-10
  1 24 34  3.17097920E-10
  1 24 35  3.90030441E-09
  1 24 36  3.80517504E-09
  1 24 37  3.80517504E-09
  1 24 38  3.80517504E-09
  1 25 14  4.34424150E-09
  1 25 15  1.96600710E-09
  1 25 29  3.80517504E-09
  1 25 30  3.80517504E-09
  1 25 31  3.80517504E-09
  1 25 32  3.17097920E-10
  1 25 33  3.17097920E-10
  1 25 34  3.17097920E-10
  1 25 35  4.34424150E-09
  1 25 36  4.34424150E-09
  1 25 37  3.80517504E-09
  1 25 38  3.80517504E-09
  1 26 29  7.92744800E-10
  1 26 30  3.80517504E-09
  1 26 32  3.80517504E-09
  1 26 33  3.80517504E-09
  1 26 34  3.17097920E-10
  1 26 35  4.34424150E-09
  1 26 36  4.34424150E-09
  1 26 37  3.80517504E-09
  1 26 38  3.80517504E-09
  1 27 29  7.92744800E-10
  1 27 30  3.80517504E-09
  1 27 31  3.80517504E-09
  1 27 32  3.80517504E-09
  1 27 33  4.34424150E-09
  1 27 34  4.34424150E-09
  1 27 36  4.34424150E-09
  1 27 37  4.34424150E-09
  1 27 38  3.80517504E-09
  1 28 30  3.80517504E-09
  1 28 31  3.80517504E-09
  1 28 32  4.34424150E-09
  1 28 33  4.34424150E-09
  1 28 36  3.80517504E-09
  1 28 37  3.80517504E-09
  1 28 38  3.80517504E-09
  1 29 31  3.80517504E-09
  1 29 32  3.80517504E-09
  1 29 34  3.80517504E-09
  1 29 35  -1.58548960E-09
  1 29 36  -1.58548960E-09
  1 29 37  -1.58548960E-09
  1 29 38  3.17097920E-10
  1 29 39  3.17097920E-10
  1 30 31  3.80517504E-09
  1 30 32  4.34424150E-09
  1 30 33  4.34424150E-09
  1 30 34  4.34424150E-09
  1 30 35  -1.58548960E-09
  1 30 36  -1.58548960E-09
  1 30 37  -1.58548960E-09
  1 30 38  3.17097920E-10
  1 30 39  3.17097920E-10
  1 31 30  3.80517504E-09
  1 31 31  4.34424150E-09
  1 31 32  4.34424150E-09
  1 31 33  4.34424150E-09
  1 31 34  4.34424150E-09
  1 31 35  1.90258752E-09
  1 31 36  1.90258752E-09
  1 31 37  2.44165398E-09
  1 31 38  4.34424150E-09
  1 31 39  3.80517504E-09
  1 32 28  7.92744800E-10
  1 32 29  7.92744800E-10
  1 32 30  4.34424150E-09
  1 32 31  4.34424150E-09
  1 32 32  4.34424150E-09
  1 32 33  4.34424150E-09
  1 32 34  4.34424150E-09
  1 32 35  1.90258752E-09
  1 32 36  1.90258752E-09
  1 32 37  1.90258752E-09
  1 32 38  3.80517504E-09
  1 32 39  3.80517504E-09
  1 33 27  7.92744800E-10
  1 33 28  1.33181126E-09
  1 33 29  1.33181126E-09
  1 33 30  4.34424150E-09
  1 33 31  4.34424150E-09
  1 33 32  4.34424150E-09
  1 33 33  4.34424150E-09
  1 33 34  3.80517504E-09
  1 33 35  1.90258752E-09
  1 33 36  1.90258752E-09
  1 33 37  1.90258752E-09
  1 33 38  3.80517504E-09
  1 33 39  3.80517504E-09
  1 34 26  7.92744800E-10
  1 34 27  1.33181126E-09
  1 34 28  7.92744800E-10
  1 34 29  7.92744800E-10
  1 34 30  3.80517504E-09
  1 34 31  3.80517504E-09
  1 34 32  3.80517504E-09
  1 34 33  3.80517504E-09
  1 34 34  4.34424150E-09
  1 34 35  2.44165398E-09
  1 34 36  2.44165398E-09
  1 34 37  1.90258752E-09
  1 34 38  3.80517504E-09
  1 34 39  3.80517504E-09
  1 35 25  1.33181126E-09
  1 35 26  1.33181126E-09
  1 35 27  7.92744800E-10
  1 35 28  7.92744800E-10
  1 35 29  7.92744800E-10
  1 35 30  3.80517504E-09
  1 35 31  3.80517504E-09
  1 35 32  3.80517504E-09
  1 35 33  3.80517504E-09
  1 35 34  3.80517504E-09
  1 35 35  3.80517504E-09
  1 35 37  3.80517504E-09
  1 35 38  1.90258752E-09
  1 35 39  1.90258752E-09
  1 36 25  1.33181126E-09
  1 36 26  7.92744800E-10
  1 36 27  3.80517504E-09
  1 36 28  3.80517504E-09
  1 36 29  3.80517504E-09
  1 36 30  3.80517504E-09
  1 36 31  3.80517504E-09
  1 36 32  3.80517504E-09
  1 36 33  3.80517504E-09
  1 36 34  3.80517504E-09
  1 36 35  3.80517504E-09
  1 37 26  3.80517504E-09
  1 37 27  3.80517504E-09
  1 37 28  3.80517504E-09
  1 37 29  3.80517504E-09
  1 37 30  3.80517504E-09
  1 37 31  3.80517504E-09
  1 37 32  3.80517504E-09
  1 37 33  3.80517504E-09
  3 1 29  3.80517504E-09
  3 2 28  3.80517504E-09
  3 11 23  3.80517504E-09
  3 12 24  3.80517504E-09
  3 12 25  3.80517504E-09
  3 12 26  3.80517504E-09
  5 3 27  3.80517504E-09
  5 4 23  3.80517504E-09
  5 4 24  3.80517504E-09
  5 4 25  3.80517504E-09
  5 4 26  3.80517504E-09
  5 5 22  3.80517504E-09
  5 6 21  3.80517504E-09
  5 6 22  3.80517504E-09
  5 7 21  3.80517504E-09
  5 7 22  3.80517504E-09
  5 9 20  1.42694064E-09
  5 11 20  1.42694064E-09
  5 11 21  3.80517504E-09
  5 11 22  3.80517504E-09
  5 12 19  1.42694064E-09
  5 12 20  1.42694064E-09
  5 12 21  1.42694064E-09
  5 12 22  1.42694064E-09
  5 12 23  1.58548960E-09
  5 13 18  1.42694064E-09
  5 13 19  1.42694064E-09
  5 13 20  2.53678336E-09
  5 13 21  2.53678336E-09
  5 13 22  2.53678336E-09
  5 13 23  2.53678336E-09
  5 13 24  2.53678336E-09
  5 13 25  2.53678336E-09
  5 13 26  2.53678336E-09
  5 14 18  1.42694064E-09
  5 14 19  1.42694064E-09
  5 14 20  2.53678336E-09
  5 14 21  2.53678336E-09
  5 14 22  2.53678336E-09
  5 14 23  2.53678336E-09
  5 14 24  2.53678336E-09
  5 14 25  2.53678336E-09
  5 14 26  2.53678336E-09
  5 15 15  1.42694064E-09
  5 15 16  1.42694064E-09
  5 15 17  1.42694064E-09
  5 15 18  1.42694064E-09
  5 15 19  1.42694064E-09
  5 15 20  2.53678336E-09
  5 15 21  2.53678336E-09
  5 15 22  2.53678336E-09
  5 15 23  2.53678336E-09
  5 15 24  2.53678336E-09
  5 15 25  2.53678336E-09
  5 16 12  3.80517504E-09
  5 16 13  3.80517504E-09
  5 16 14  3.80517504E-09
  5 16 15  1.42694064E-09
  5 16 16  1.42694064E-09
  5 16 17  1.42694064E-09
  5 16 18  1.42694064E-09
  5 16 19  1.42694064E-09
  5 16 20  2.53678336E-09
  5 16 21  2.53678336E-09
  5 16 22  2.53678336E-09
  5 16 23  2.53678336E-09
  5 17 9  1.42694064E-09
  5 17 10  1.42694064E-09
  5 17 11  1.42694064E-09
  5 17 12  1.42694064E-09
  5 17 13  1.42694064E-09
  5 17 14  1.42694064E-09
  5 17 15  1.42694064E-09
  5 17 16  1.42694064E-09
  5 17 17  1.42694064E-09
  5 17 18  1.42694064E-09
  5 17 31  2.53678336E-09
  5 17 32  1.90258752E-09
  5 17 33  1.90258752E-09
  5 17 34  1.90258752E-09
  5 17 35  1.90258752E-09
  5 18 27  2.53678336E-09
  5 18 28  2.53678336E-09
  5 18 29  2.53678336E-09
  5 18 30  7.92744800E-10
  5 18 31  7.92744800E-10
  5 18 32  7.92744800E-10
  5 18 33  7.92744800E-10
  5 18 34  7.92744800E-10
  5 19 26  2.53678336E-09
  5 19 27  2.53678336E-09
  5 19 28  7.92744800E-10
  5 19 29  7.92744800E-10
  5 19 30  7.92744800E-10
  5 19 31  7.92744800E-10
  5 19 32  7.92744800E-10
  5 19 33  7.92744800E-10
  5 19 34  7.92744800E-10
  5 19 36  1.42694064E-09
  5 20 26  2.53678336E-09
  5 20 27  2.53678336E-09
  5 20 28  7.92744800E-10
  5 20 29  7.92744800E-10
  5 20 30  7.92744800E-10
  5 20 31  7.92744800E-10
  5 20 32  7.92744800E-10
  5 20 33  7.92744800E-10
  5 20 34  7.92744800E-10
  5 21 24  2.53678336E-09
  5 21 25  2.53678336E-09
  5 21 26  2.53678336E-09
  5 21 27  2.53678336E-09
  5 21 28  7.92744800E-10
  5 21 29  7.92744800E-10
  5 21 30  7.92744800E-10
  5 21 31  7.92744800E-10
  5 21 32  7.92744800E-10
  5 21 33  7.92744800E-10
  5 21 34  7.92744800E-10
  5 22 24  2.53678336E-09
  5 22 25  2.53678336E-09
  5 22 26  2.53678336E-09
  5 22 27  2.53678336E-09
  5 22 28  7.92744800E-10
  5 22 29  3.80517504E-09
  5 22 30  3.80517504E-09
  5 22 31  3.80517504E-09
  5 22 32  3.80517504E-09
  5 23 8  3.80517504E-09
  5 23 9  3.80517504E-09
  5 23 22  2.53678336E-09
  5 23 23  2.53678336E-09
  5 23 24  2.53678336E-09
  5 23 25  2.53678336E-09
  5 23 26  2.53678336E-09
  5 23 27  2.53678336E-09
  5 23 28  7.92744800E-10
  5 24 10  3.80517504E-09
  5 24 11  3.80517504E-09
  5 24 18  2.53678336E-09
  5 24 19  2.53678336E-09
  5 24 20  2.53678336E-09
  5 24 21  2.53678336E-09
  5 24 22  2.53678336E-09
  5 24 23  2.53678336E-09
  5 24 24  2.53678336E-09
  5 24 25  2.53678336E-09
  5 24 26  2.53678336E-09
  5 24 27  2.53678336E-09
  5 24 28  7.92744800E-10
  5 24 29  3.80517504E-09
  5 25 11  3.80517504E-09
  5 25 12  3.80517504E-09
  5 25 13  3.80517504E-09
  5 25 16  1.42694064E-09
  5 25 17  1.42694064E-09
  5 25 18  1.42694064E-09
  5 25 19  1.42694064E-09
  5 25 20  1.42694064E-09
  5 25 21  1.42694064E-09
  5 25 22  1.42694064E-09
  5 25 23  1.42694064E-09
  5 25 24  1.42694064E-09
  5 25 25  7.92744800E-10
  5 25 26  7.92744800E-10
  5 25 27  7.92744800E-10
  5 25 28  7.92744800E-10
  5 26 12  3.80517504E-09
  5 26 13  3.80517504E-09
  5 26 14  3.80517504E-09
  5 26 15  1.42694064E-09
  5 26 16  1.42694064E-09
  5 26 17  1.42694064E-09
  5 26 18  1.42694064E-09
  5 26 19  1.42694064E-09
  5 26 20  1.42694064E-09
  5 26 21  1.42694064E-09
  5 26 22  1.42694064E-09
  5 26 23  1.42694064E-09
  5 26 24  1.42694064E-09
  5 26 25  7.92744800E-10
  5 26 26  7.92744800E-10
  5 26 27  7.92744800E-10
  5 26 28  7.92744800E-10
  5 26 31  1.42694064E-09
  5 27 13  3.80517504E-09
  5 27 14  3.80517504E-09
  5 27 15  1.42694064E-09
  5 27 16  1.42694064E-09
  5 27 17  1.42694064E-09
  5 27 18  1.42694064E-09
  5 27 19  1.42694064E-09
  5 27 20  1.42694064E-09
  5 27 21  1.42694064E-09
  5 27 22  1.42694064E-09
  5 27 23  1.42694064E-09
  5 27 24  1.42694064E-09
  5 27 25  7.92744800E-10
  5 27 26  7.92744800E-10
  5 27 27  7.92744800E-10
  5 27 28  7.92744800E-10
  5 27 35  1.42694064E-09
  5 28 14  3.80517504E-09
  5 28 15  1.42694064E-09
  5 28 16  1.42694064E-09
  5 28 17  1.42694064E-09
  5 28 18  1.42694064E-09
  5 28 19  1.42694064E-09
  5 28 20  1.42694064E-09
  5 28 21  1.42694064E-09
  5 28 22  1.42694064E-09
  5 28 23  1.42694064E-09
  5 28 24  1.42694064E-09
  5 28 25  7.92744800E-10
  5 28 26  7.92744800E-10
  5 28 27  7.92744800E-10
  5 28 28  7.92744800E-10
  5 28 29  7.92744800E-10
  5 28 34  1.42694064E-09
  5 28 35  1.42694064E-09
  5 29 15  1.42694064E-09
  5 29 16  1.42694064E-09
  5 29 17  1.42694064E-09
  5 29 18  1.42694064E-09
  5 29 19  1.42694064E-09
  5 29 20  1.42694064E-09
  5 29 21  1.42694064E-09
  5 29 22  1.42694064E-09
  5 29 23  1.42694064E-09
  5 29 24  1.42694064E-09
  5 29 25  7.92744800E-10
  5 29 26  7.92744800E-10
  5 29 27  7.92744800E-10
  5 29 28  7.92744800E-10
  5 29 29  7.92744800E-10
  5 29 30  1.42694064E-09
  5 29 33  1.42694064E-09
  5 30 15  1.42694064E-09
  5 30 16  1.42694064E-09
  5 30 17  1.42694064E-09
  5 30 18  1.42694064E-09
  5 30 19  1.42694064E-09
  5 30 20  1.42694064E-09
  5 30 21  1.42694064E-09
  5 30 22  1.42694064E-09
  5 30 23  1.42694064E-09
  5 30 24  1.42694064E-09
  5 30 25  7.92744800E-10
  5 30 26  7.92744800E-10
  5 30 27  7.92744800E-10
  5 30 28  7.92744800E-10
  5 30 29  7.92744800E-10
  5 30 30  1.42694064E-09
  5 31 15  1.42694064E-09
  5 31 16  1.42694064E-09
  5 31 17  1.42694064E-09
  5 31 18  1.42694064E-09
  5 31 19  1.42694064E-09
  5 31 20  1.42694064E-09
  5 31 21  1.42694064E-09
  5 31 22  1.42694064E-09
  5 31 23  1.42694064E-09
  5 31 24  1.42694064E-09
  5 31 25  7.92744800E-10
  5 31 26  7.92744800E-10
  5 31 27  7.92744800E-10
  5 31 28  7.92744800E-10
  5 31 29  7.92744800E-10
  5 32 15  1.42694064E-09
  5 32 16  1.42694064E-09
  5 32 17  1.42694064E-09
  5 32 18  1.42694064E-09
  5 32 19  1.42694064E-09
  5 32 20  1.42694064E-09
  5 32 21  1.42694064E-09
  5 32 22  1.42694064E-09
  5 32 23  1.42694064E-09
  5 32 24  1.42694064E-09
  5 32 25  7.92744800E-10
  5 32 26  7.92744800E-10
  5 32 27  7.92744800E-10
  5 33 15  1.42694064E-09
  5 33 16  1.42694064E-09
  5 33 17  1.42694064E-09
  5 33 18  1.42694064E-09
  5 33 19  1.42694064E-09
  5 33 20  1.42694064E-09
  5 33 21  1.42694064E-09
  5 33 22  1.42694064E-09
  5 33 23  1.42694064E-09
  5 33 24  1.42694064E-09
  5 33 25  7.92744800E-10
  5 33 26  7.92744800E-10
  5 34 25  7.92744800E-10
  5 35 36  7.92744800E-10
  5 36 36  7.92744800E-10
  5 36 37  7.92744800E-10
  5 36 38  7.92744800E-10
  5 36 39  7.92744800E-10
  5 37 25  7.92744800E-10
  5 37 34  7.92744800E-10
  5 37 35  7.92744800E-10
  5 37 36  7.92744800E-10
  5 38 25  7.92744800E-10
  5 38 26  7.92744800E-10
  5 38 27  7.92744800E-10
  5 38 28  7.92744800E-10
  5 38 29  7.92744800E-10
  5 38 30  7.92744800E-10
  5 38 31  7.92744800E-10
END period  1

