BEGIN options
  SAVE_FLOWS
END options

BEGIN dimensions
  MAXBOUND  121
END dimensions

BEGIN period  1
  1 82 134      23.87791006
  1 82 135      23.59720965
  1 82 136      23.28106768
  1 82 137      23.00053477
  1 83 137      22.82394261
  1 83 138      22.55382484
  1 84 138      22.33348221
  1 84 139      22.13764146
  1 85 139      21.74633565
  1 86 139      21.48932584
  1 86 140      21.29872103
  1 87 140      20.99997169
  1 87 141      20.66839075
  1 87 142      20.34577063
  1 87 143      20.01980498
  1 87 144      19.66557156
  1 87 145      19.47631325
  1 86 145      19.28013946
  1 86 146      18.92810714
  1 86 147      18.60898769
  1 86 148      18.27845858
  1 86 149      17.95573739
  1 87 149      17.71657879
  1 87 150      17.45724533
  1 88 150      17.25914149
  1 88 151      17.07254524
  1 88 152      16.88211005
  1 87 152      16.69863817
  1 87 153      16.36529683
  1 87 154      16.02317305
  1 87 155      15.70292528
  1 87 156      15.38736958
  1 87 157      15.07086811
  1 87 158      14.75072391
  1 87 159      14.43211458
  1 87 160      14.11738256
  1 87 161      13.80376147
  1 87 162      13.49009451
  1 87 163      12.85087423
  1 87 164      12.64679092
  1 88 164      12.48524834
  1 88 165      12.22748941
  1 88 166      11.94027806
  1 89 166      11.78550812
  1 89 167      11.57340934
  1 90 167      11.22136067
  1 91 167      10.90244115
  1 92 167      10.68455201
  1 92 168      10.46113701
  1 93 168      10.27603452
  1 93 169      10.10361030
  1 93 170       9.80830383
  1 93 171       9.52400113
  1 93 172       9.23487285
  1 93 173       8.98497884
  1 94 173       8.83612460
  1 94 174       8.64890611
  1 94 175       8.36689694
  1 94 176       8.08071677
  1 94 177       7.78666443
  1 95 177       7.60331247
  1 95 178       7.39979394
  1 96 178       7.17551727
  1 96 179       6.94354406
  1 97 179       6.75670631
  1 97 180       6.59311642
  1 97 181       6.29265469
  1 97 182       5.99735211
  1 97 183       5.84873883
  1 98 183       5.70515234
  1 98 184       5.41965324
  1 98 185       4.94046184
  1 97 185       4.87931884
  1 97 186       4.81729814
  1 97 187       4.69663726
  1 97 188       4.57393284
  1 97 189       4.43328943
  1 96 189       4.34277919
  1 96 190       4.25767566
  1 96 191       4.14529094
  1 95 191       4.07450596
  1 95 192       3.97002220
  1 95 193       3.88045651
  1 94 193       3.81004925
  1 94 194       3.68613284
  1 94 195       3.60717255
  1 93 195       3.53849251
  1 93 196       3.41039810
  1 93 197       3.32867528
  1 92 197       3.26029149
  1 92 198       3.13987379
  1 92 199       3.01295236
  1 92 200       2.93058740
  1 91 200       2.86881674
  1 91 201       2.76586971
  1 91 202       2.64128373
  1 91 203       2.51536265
  1 91 204       2.42427777
  1 90 204       2.36088921
  1 90 205       2.26189346
  1 90 206       2.13473129
  1 90 207       2.02283423
  1 89 207       1.95919077
  1 89 208       1.87751391
  1 89 209       1.74623057
  1 89 210       1.64074098
  1 88 210       1.57795073
  1 88 211       1.49360197
  1 88 212       1.37120778
  1 88 213       1.25065813
  1 88 214       1.13010847
  1 88 215       0.99838458
  1 88 216       0.91643491
  1 87 216       0.82367123
  1 86 216       0.72979756
  1 86 217       0.64404878
  1 85 217       0.54331554
  1 85 218       0.45105142
  1 84 218       0.36941713
  1 84 219       0.28817432
  1 84 220       0.16144837
END period  1

