BEGIN options
  SAVE_FLOWS
END options

BEGIN dimensions
  MAXBOUND  98
END dimensions

BEGIN period  1
  1 174 96     135.08070536
  1 173 96     135.58769321
  1 173 97     135.24557646
  1 173 98     129.93347401
  1 173 99     129.99163521
  1 173 100     129.14349362
  1 173 101     127.22638636
  1 173 102     123.08954646
  1 173 103     121.06333003
  1 174 103     119.78285325
  1 173 104     117.84345616
  1 173 105     115.06702245
  1 173 106     112.85921638
  1 172 106     113.18583487
  1 172 107     113.71370702
  1 172 108     113.96105486
  1 172 109     111.34211963
  1 172 110     110.91809746
  1 172 111     109.93941001
  1 173 111     109.41073292
  1 173 112     109.12042159
  1 173 113     107.96350654
  1 172 113     106.93977669
  1 172 114     105.87139341
  1 172 115     104.46410275
  1 171 115     103.53482009
  1 171 116     102.77267021
  1 171 117     100.83849995
  1 171 118     100.79727407
  1 170 118     100.75419732
  1 169 118     100.68763815
  1 169 117     100.64865112
  1 169 119     100.63358865
  1 170 119     100.60358505
  1 170 120     100.53424789
  1 169 120     100.36607106
  1 169 121     100.06843013
  1 170 121      99.51626416
  1 170 122      98.03391667
  1 169 122      94.68864559
  1 169 123      88.45485887
  1 169 124      87.58167416
  1 168 124      85.31470490
  1 167 124      84.30364699
  1 167 125      83.63439815
  1 168 125      81.87247704
  1 169 125      81.54375397
  1 169 126      81.27767228
  1 168 126      81.08080883
  1 168 127      80.48055884
  1 167 127      78.65126006
  1 167 128      78.19765392
  1 167 129      77.85756837
  1 166 129      77.44019020
  1 166 130      76.15736173
  1 166 131      72.86824151
  1 166 132      72.75154711
  1 167 132      72.67793184
  1 166 133      72.53681255
  1 165 133      71.57149519
  1 165 132      70.64570054
  1 165 134      69.40477392
  1 164 134      69.23664833
  1 164 135      69.03377265
  1 163 135      67.61674051
  1 162 135      64.74017504
  1 162 136      63.73712722
  1 162 137      63.72233438
  1 163 137      63.44269179
  1 163 138      62.87081765
  1 163 139      62.15609997
  1 162 139      61.46080569
  1 162 140      61.40231402
  1 161 140      61.41614666
  1 160 140      61.57134492
  1 160 141      61.21544374
  1 161 141      60.55633674
  1 161 142      59.91538440
  1 161 143      59.04652384
  1 160 143      58.08693959
  1 159 143      56.86367548
  1 159 144      54.80264685
  1 159 145      53.32857407
  1 159 146      52.20084207
  1 160 146      51.28542326
  1 158 146      50.74238482
  1 158 147      48.39543890
  1 158 148      46.79714750
  1 158 149      45.94692201
  1 157 149      44.99635704
  1 157 148      46.12612276
  1 157 150      45.90264789
  1 156 150      45.54487728
  1 156 151      45.05819404
  1 155 151      42.91065484
  1 154 151      41.76163372
  1 154 152      40.68299353
  1 154 153      32.80116841
END period  1

