BEGIN options
  BUDGET  FILEOUT  Inversion_test.cbc
  HEAD  FILEOUT  Inversion_test.hds
END options

BEGIN period  1
  SAVE  HEAD  LAST
  SAVE  BUDGET  ALL
  PRINT  HEAD  LAST
  PRINT  BUDGET  ALL
END period  1

