BEGIN options
END options

BEGIN packages
  DIS6  Inversion_test.dis  dis
  IC6  Inversion_test.ic  ic
  OC6  Inversion_test.oc  oc
  NPF6  Inversion_test.npf  npf
  RCH6  Inversion_test.rcha  rcha
  WEL6  wel.wel  wel
  CHD6  sea.chd  sea
  CHD6  eta.chd  eta
  CHD6  agy.chd  agy
  CHD6  Tet.chd  tet
  CHD6  Rea.chd  rea
  CHD6  Cant.chd  cant
  CHD6  Tech.chd  tech
  CHD6  Bol.chd  bol
END packages

