BEGIN options
END options

BEGIN timing
  TDIS6  theis_mf6.tdis
END timing

BEGIN models
  gwf6  Inversion_test.nam  Inversion_test
END models

BEGIN exchanges
END exchanges

BEGIN solutiongroup  1
  ims6  theis_mf6.ims  Inversion_test
END solutiongroup  1

