BEGIN options
  SAVE_FLOWS
END options

BEGIN dimensions
  MAXBOUND  166
END dimensions

BEGIN period  1
  1 180 110     123.61376531
  1 180 111     122.82517464
  1 181 111     121.96898068
  1 181 112     121.05643970
  1 181 113     120.14041390
  1 180 113     118.53319493
  1 180 114     117.46927694
  1 181 114     116.06636643
  1 181 115     114.80372234
  1 182 115     113.69675562
  1 182 116     112.29767779
  1 182 117     108.54438783
  1 182 118     107.59604644
  1 182 119     106.65300789
  1 182 120     105.54965340
  1 182 121     103.20067923
  1 182 122     101.89919551
  1 181 122     101.05066044
  1 181 123      99.00000000
  1 181 124      99.00000000
  1 181 125      97.73749938
  1 181 126      93.56214119
  1 181 127      93.03561163
  1 180 127      92.45115603
  1 180 128      91.51057041
  1 180 129      90.71768715
  1 179 129      90.07105888
  1 179 130      88.41826377
  1 178 130      87.56904154
  1 178 131      86.48310892
  1 178 132      85.55431979
  1 177 132      83.35898079
  1 177 133      82.35967489
  1 176 133      81.58782659
  1 176 134      80.56533413
  1 176 135      78.68761459
  1 175 135      78.26884936
  1 175 136      78.03138251
  1 176 136      77.60043998
  1 176 137      76.88944151
  1 177 137      76.40885725
  1 177 138      75.92627953
  1 177 139      75.12165997
  1 177 140      73.26560390
  1 176 140      71.66623409
  1 175 140      70.55047222
  1 175 141      69.00000000
  1 174 141      69.00000000
  1 173 141      69.00000000
  1 173 142      69.00000000
  1 172 142      68.04542226
  1 172 143      66.31714251
  1 172 144      64.00000000
  1 172 145      64.00000000
  1 171 145      62.78646612
  1 170 145      58.54735294
  1 169 145      57.79882937
  1 169 146      56.95159821
  1 168 146      55.97559483
  1 167 146      55.09875061
  1 166 146      53.61671349
  1 166 147      52.80866811
  1 165 147      52.32956320
  1 165 148      51.63907322
  1 165 149      50.87205689
  1 164 149      50.22620786
  1 163 149      48.73979328
  1 163 150      48.22431258
  1 162 150      47.69766197
  1 162 151      47.28533705
  1 161 151      46.73810706
  1 160 151      46.18082068
  1 160 152      45.76173761
  1 159 152      45.11423659
  1 158 152      43.24881056
  1 157 152      41.79204438
  1 157 153      40.85219563
  1 156 153      38.35101675
  1 155 153      37.36980473
  1 155 154      36.45957467
  1 154 154      35.82022437
  1 154 155      35.09742745
  1 154 156      33.90303253
  1 153 156      33.58362363
  1 153 157      33.19679700
  1 152 157      32.87925155
  1 152 158      32.48910953
  1 152 159      32.01901508
  1 152 160      31.54849606
  1 152 161      31.07511518
  1 152 162      30.58667115
  1 151 162      30.29162494
  1 151 163      29.94332501
  1 151 164      29.58984606
  1 150 164      28.70508069
  1 150 165      28.25764896
  1 149 165      27.92169509
  1 149 166      27.45062011
  1 148 166      27.14839303
  1 148 167      26.84901185
  1 148 168      26.29861704
  1 148 169      25.77874792
  1 148 170      25.27032810
  1 148 171      24.76159637
  1 148 172      24.00000000
  1 148 173      23.60639481
  1 148 174      22.92438307
  1 147 174      22.53055245
  1 147 175      22.03230158
  1 147 176      21.46595092
  1 148 176      21.04778644
  1 148 177      20.38339640
  1 148 178      19.52774065
  1 148 179      19.08518758
  1 149 179      18.65120495
  1 149 180      17.79643589
  1 150 180      17.30857042
  1 150 181      16.80251958
  1 150 182      15.94108706
  1 150 183      15.38229860
  1 151 183      14.95333107
  1 151 184      14.24221992
  1 151 185      12.56030552
  1 151 186      11.63175125
  1 151 187      11.08603504
  1 150 187      10.55020424
  1 149 187       8.79306053
  1 148 187       8.53259495
  1 148 188       8.28419605
  1 148 189       8.01124785
  1 147 189       7.81865526
  1 147 190       7.53771937
  1 146 190       7.29401396
  1 146 191       7.03555918
  1 146 192       6.69205291
  1 146 193       6.36737652
  1 146 194       6.04251425
  1 146 195       5.68704056
  1 146 196       5.42708779
  1 147 196       5.24168060
  1 147 197       4.96049160
  1 147 198       4.63259833
  1 147 199       4.30278582
  1 147 200       3.95406878
  1 147 201       3.76872119
  1 146 201       3.58623293
  1 146 202       3.21399406
  1 146 203       3.02286624
  1 145 203       2.78475939
  1 145 204       2.53201551
  1 144 204       2.28481187
  1 143 204       2.03977121
  1 143 205       1.80448002
  1 142 205       1.54788467
  1 142 206       1.30980283
  1 141 206       1.05833394
  1 141 207       0.81953600
  1 140 207       0.56836803
  1 140 208       0.32957010
  1 139 208       0.07840213
  1 139 209      -0.16180067
  1 138 209      -0.41538500
  1 138 210      -0.65523978
  1 137 210      -0.90488264
  1 146 217       0.00000000
  1 146 218       0.00000000
END period  1

