BEGIN options
  SAVE_FLOWS
END options

BEGIN dimensions
  MAXBOUND  263
END dimensions

BEGIN period  1
  1 143 26     162.12208193
  1 144 26     161.19459128
  1 144 27     160.31976610
  1 143 27     159.31344769
  1 143 28     156.50011484
  1 143 29     155.48979933
  1 143 30     153.48179324
  1 143 31     152.44506347
  1 143 32     151.41007603
  1 143 33     150.37758608
  1 143 34     149.34552855
  1 143 35     148.31343248
  1 143 36     147.51982902
  1 142 36     146.94173613
  1 142 37     146.19351777
  1 141 37     145.15847024
  1 140 37     143.97869662
  1 139 37     142.83708501
  1 139 38     141.99669738
  1 138 38     141.36223662
  1 138 39     140.49302190
  1 137 39     139.74756240
  1 137 40     138.87795193
  1 136 40     138.19467746
  1 136 41     137.61709569
  1 136 42     136.55447638
  1 136 43     135.51955203
  1 136 44     134.47056938
  1 136 45     133.41699181
  1 136 46     132.35918422
  1 136 47     131.61622998
  1 135 47     131.04374075
  1 135 48     130.06818220
  1 134 48     128.74445200
  1 134 49     128.00899150
  1 133 49     126.83987903
  1 132 49     124.67786293
  1 132 50     124.30349960
  1 131 50     123.79186245
  1 131 51     123.29640259
  1 130 51     122.83648506
  1 130 52     122.31495302
  1 129 52     121.91205379
  1 129 53     121.31814446
  1 128 53     120.87357032
  1 128 54     120.38739042
  1 127 54     119.93616763
  1 127 55     118.09915638
  1 126 55     117.04076299
  1 126 56     116.16365363
  1 126 57     113.58350457
  1 126 58     112.75606579
  1 126 59     112.29447916
  1 127 59     111.87911854
  1 127 60     111.10102660
  1 127 61     110.53190136
  1 126 61     110.10483665
  1 126 62     108.43121981
  1 126 63     107.13442135
  1 126 64     106.40405462
  1 125 64     105.77749418
  1 125 65     104.00000000
  1 125 66     104.00000000
  1 125 67     104.00000000
  1 124 67     102.47884171
  1 124 68      98.79065810
  1 123 68      98.24360257
  1 123 69      97.57960596
  1 124 69      97.17955859
  1 124 70      96.78610740
  1 124 71      96.16731502
  1 124 72      95.55295452
  1 124 73      94.91702833
  1 124 74      94.46491736
  1 125 74      94.00000000
  1 125 75      94.00000000
  1 125 76      94.00000000
  1 125 77      94.00000000
  1 125 78      94.00000000
  1 126 78      94.00000000
  1 126 79      93.12048299
  1 126 80      91.43894396
  1 126 81      89.00000000
  1 126 82      89.00000000
  1 127 82      89.00000000
  1 127 83      89.00000000
  1 127 84      89.00000000
  1 127 85      88.19121568
  1 127 86      87.08213058
  1 128 86      86.21121016
  1 128 87      83.50485728
  1 128 88      82.49739604
  1 128 89      81.51285739
  1 129 89      80.97479631
  1 129 90      80.44044989
  1 129 91      78.61359348
  1 129 92      77.77095057
  1 130 92      77.29447254
  1 130 93      76.77495069
  1 130 94      76.14710792
  1 131 94      75.75779639
  1 131 95      75.11935966
  1 131 96      73.50420304
  1 131 97      72.51320173
  1 131 98      71.51436056
  1 131 99      70.76525692
  1 132 99      70.25031689
  1 132 100      68.18525301
  1 132 101      66.53823186
  1 132 102      64.00000000
  1 132 103      64.00000000
  1 132 104      64.00000000
  1 131 104      64.00000000
  1 131 105      64.00000000
  1 132 105      64.00000000
  1 132 106      64.00000000
  1 132 107      63.31485208
  1 132 108      61.93089198
  1 132 109      60.48002282
  1 132 110      59.00000000
  1 133 110      59.00000000
  1 133 111      58.58818217
  1 133 112      57.76183213
  1 133 113      57.10887611
  1 132 113      56.59226067
  1 132 114      55.90114205
  1 131 114      55.39392987
  1 131 115      54.88765990
  1 131 116      54.00000000
  1 132 116      54.00000000
  1 132 117      53.57926527
  1 132 118      53.13041053
  1 131 118      52.69972993
  1 131 119      51.88998975
  1 131 120      51.07605282
  1 131 121      50.24813441
  1 131 122      49.00000000
  1 131 123      49.00000000
  1 130 123      49.00000000
  1 130 124      49.00000000
  1 130 125      49.00000000
  1 130 126      49.00000000
  1 130 127      48.41350714
  1 129 127      47.79370463
  1 129 128      47.13203489
  1 129 129      45.86474003
  1 129 130      44.00000000
  1 129 131      43.35768282
  1 129 132      42.04809298
  1 129 133      39.80154806
  1 129 134      39.53918231
  1 128 134      39.00000000
  1 128 135      39.00000000
  1 127 135      39.00000000
  1 127 136      39.00000000
  1 127 137      38.19271285
  1 127 138      36.56400480
  1 127 139      35.41733518
  1 126 139      34.00000000
  1 126 140      34.00000000
  1 126 141      34.00000000
  1 125 141      34.00000000
  1 125 142      34.00000000
  1 125 143      34.00000000
  1 125 144      33.15897294
  1 125 145      31.48829732
  1 125 146      29.00000000
  1 125 147      29.00000000
  1 125 148      29.00000000
  1 125 149      29.00000000
  1 124 149      29.00000000
  1 124 150      29.00000000
  1 124 151      29.00000000
  1 124 152      29.00000000
  1 124 153      29.00000000
  1 124 154      29.00000000
  1 123 154      29.00000000
  1 123 155      29.00000000
  1 123 156      28.50043559
  1 123 157      27.50636559
  1 123 158      26.62303749
  1 122 158      26.13181099
  1 122 159      25.53211721
  1 122 160      23.69444053
  1 122 161      23.09068952
  1 121 161      22.77767534
  1 121 162      22.45523357
  1 121 163      21.84250346
  1 121 164      21.30342583
  1 120 164      20.99361967
  1 120 165      20.57470826
  1 120 166      19.97602101
  1 119 166      19.66696138
  1 119 167      18.72373417
  1 119 168      18.18337489
  1 119 169      17.65264505
  1 119 170      17.30294813
  1 118 170      17.02855397
  1 118 171      16.56049196
  1 118 172      16.00661178
  1 118 173      15.70694221
  1 117 173      15.43609984
  1 117 174      14.92934024
  1 117 175      14.40186361
  1 117 176      13.89002945
  1 116 176      13.60028380
  1 116 177      12.86373758
  1 116 178      12.59649546
  1 116 179      12.33550692
  1 116 180      12.07786927
  1 116 181      11.81555318
  1 116 182      11.58645230
  1 117 182      11.45128181
  1 117 183      11.27535445
  1 117 184      11.01048048
  1 117 185      10.75184083
  1 117 186      10.49606997
  1 117 187      10.24197890
  1 117 188       9.98567086
  1 117 189       9.72880280
  1 117 190       9.47375170
  1 117 191       9.21888691
  1 117 192       8.95839708
  1 117 193       8.69716666
  1 117 194       8.44055610
  1 117 195       8.18583731
  1 117 196       7.93034453
  1 117 197       7.66227344
  1 117 198       7.40448661
  1 116 198       7.27108168
  1 116 199       7.12957639
  1 116 200       6.90904501
  1 117 200       6.77590406
  1 117 201       6.59718942
  1 117 202       6.35813307
  1 118 202       6.18146006
  1 118 203       5.98279320
  1 119 203       5.81506411
  1 119 204       5.63575347
  1 119 205       5.37340658
  1 119 206       5.15279631
  1 118 206       5.00456293
  1 118 207       4.80063671
  1 117 207       4.60599596
  1 117 208       4.43927463
  1 116 208       4.24147097
  1 116 209       4.03469782
  1 116 210       3.77699693
  1 116 211       3.59618383
  1 117 211       3.46120547
  1 117 212       3.23510893
  1 117 213       3.01462308
  1 118 213       2.85457312
  1 118 214       2.62882906
  1 119 214       2.46740722
  1 119 215       2.29217944
  1 119 216       2.00441168
  1 119 217       1.72963374
  1 119 218       1.49454885
  1 118 218       1.34386226
  1 118 219       1.13301333
  1 118 220       0.93615128
  1 117 220       0.77960273
END period  1

