BEGIN options
END options

BEGIN timing
  TDIS6  first3D_mf6.tdis
END timing

BEGIN models
  gwf6  multi_l.nam  multi_l
END models

BEGIN exchanges
END exchanges

BEGIN solutiongroup  1
  ims6  first3D_mf6.ims  multi_l
END solutiongroup  1

