BEGIN options
  READASARRAYS
  SAVE_FLOWS
END options

BEGIN period  1
  recharge
    INTERNAL  FACTOR  1.0
    3.66039328E-09  3.66039328E-09  3.66039328E-09  3.66039328E-09  3.66039328E-09  3.66039328E-09  3.66039328E-09  3.66039328E-09  3.66039328E-09  3.66039328E-09  3.66039328E-09  3.66039328E-09  3.66039328E-09  3.66039328E-09  3.66039328E-09  3.66039328E-09  3.66039328E-09  3.66039328E-09  3.66039328E-09  3.66039328E-09
    3.66039328E-09  3.66039328E-09  3.66039328E-09  3.66039328E-09  3.66039328E-09  3.66039328E-09  3.66039328E-09  3.66039328E-09  3.66039328E-09  3.66039328E-09  3.66039328E-09  3.66039328E-09  3.66039328E-09  3.66039328E-09  3.66039328E-09  3.66039328E-09  3.66039328E-09  3.66039328E-09  3.66039328E-09  3.66039328E-09
    3.66039328E-09  3.66039328E-09  3.66039328E-09  3.66039328E-09  3.66039328E-09  3.66039328E-09  3.66039328E-09  3.66039328E-09  3.66039328E-09  3.66039328E-09  3.66039328E-09  3.66039328E-09  3.66039328E-09  3.66039328E-09  3.66039328E-09  3.66039328E-09  3.66039328E-09  3.66039328E-09  3.66039328E-09  3.66039328E-09
    3.66039328E-09  3.66039328E-09  3.66039328E-09  3.66039328E-09  3.66039328E-09  3.66039328E-09  3.66039328E-09  3.66039328E-09  3.66039328E-09  3.66039328E-09  3.66039328E-09  3.66039328E-09  3.66039328E-09  3.66039328E-09  3.66039328E-09  3.66039328E-09  3.66039328E-09  3.66039328E-09  3.66039328E-09  3.66039328E-09
    3.66039328E-09  3.66039328E-09  3.66039328E-09  3.66039328E-09  3.66039328E-09  3.66039328E-09  3.66039328E-09  3.66039328E-09  3.66039328E-09  3.66039328E-09  3.66039328E-09  3.66039328E-09  3.66039328E-09  3.66039328E-09  3.66039328E-09  3.66039328E-09  3.66039328E-09  3.66039328E-09  3.66039328E-09  3.66039328E-09
    3.66039328E-09  3.66039328E-09  3.66039328E-09  3.66039328E-09  3.66039328E-09  3.66039328E-09  3.66039328E-09  3.66039328E-09  3.66039328E-09  3.66039328E-09  3.66039328E-09  3.66039328E-09  3.66039328E-09  3.66039328E-09  3.66039328E-09  3.66039328E-09  3.66039328E-09  3.66039328E-09  3.66039328E-09  3.66039328E-09
    3.66039328E-09  3.66039328E-09  3.66039328E-09  3.66039328E-09  3.66039328E-09  3.66039328E-09  3.66039328E-09  3.66039328E-09  3.66039328E-09  3.66039328E-09  3.66039328E-09  3.66039328E-09  3.66039328E-09  3.66039328E-09  3.66039328E-09  3.66039328E-09  3.66039328E-09  3.66039328E-09  3.66039328E-09  3.66039328E-09
    3.66039328E-09  3.66039328E-09  3.66039328E-09  3.66039328E-09  3.66039328E-09  3.66039328E-09  3.66039328E-09  3.66039328E-09  3.66039328E-09  3.66039328E-09  3.66039328E-09  3.66039328E-09  3.66039328E-09  3.66039328E-09  3.66039328E-09  3.66039328E-09  3.66039328E-09  3.66039328E-09  3.66039328E-09  3.66039328E-09
    3.66039328E-09  3.66039328E-09  3.66039328E-09  3.66039328E-09  3.66039328E-09  3.66039328E-09  3.66039328E-09  3.66039328E-09  3.66039328E-09  3.66039328E-09  3.66039328E-09  3.66039328E-09  3.66039328E-09  3.66039328E-09  3.66039328E-09  3.66039328E-09  3.66039328E-09  3.66039328E-09  3.66039328E-09  3.66039328E-09
    3.66039328E-09  3.66039328E-09  3.66039328E-09
    3.66039328E-09  3.66039328E-09  3.66039328E-09  3.66039328E-09  3.66039328E-09  3.66039328E-09  3.66039328E-09  3.66039328E-09  3.66039328E-09  3.66039328E-09  3.66039328E-09  3.66039328E-09  3.66039328E-09  3.66039328E-09  3.66039328E-09  3.66039328E-09  3.66039328E-09  3.66039328E-09  3.66039328E-09  3.66039328E-09
    3.66039328E-09  3.66039328E-09  3.66039328E-09  3.66039328E-09  3.66039328E-09  3.66039328E-09  3.66039328E-09  3.66039328E-09  3.66039328E-09  3.66039328E-09  3.66039328E-09  3.66039328E-09  3.66039328E-09  3.66039328E-09  3.66039328E-09  3.66039328E-09  3.66039328E-09  3.66039328E-09  3.66039328E-09  3.66039328E-09
    3.66039328E-09  3.66039328E-09  3.66039328E-09  3.66039328E-09  3.66039328E-09  3.66039328E-09  3.66039328E-09  3.66039328E-09  3.66039328E-09  3.66039328E-09  3.66039328E-09  3.66039328E-09  3.66039328E-09  3.66039328E-09  3.66039328E-09  3.66039328E-09  3.66039328E-09  3.66039328E-09  3.66039328E-09  3.66039328E-09
    3.66039328E-09  3.66039328E-09  3.66039328E-09  3.66039328E-09  3.66039328E-09  3.66039328E-09  3.66039328E-09  3.66039328E-09  3.66039328E-09  3.66039328E-09  3.66039328E-09  3.66039328E-09  3.66039328E-09  3.66039328E-09  3.66039328E-09  3.66039328E-09  3.66039328E-09  3.66039328E-09  3.66039328E-09  3.66039328E-09
    3.66039328E-09  3.66039328E-09  3.66039328E-09  3.66039328E-09  3.66039328E-09  3.66039328E-09  3.66039328E-09  3.66039328E-09  3.66039328E-09  3.66039328E-09  3.66039328E-09  3.66039328E-09  3.66039328E-09  3.66039328E-09  3.66039328E-09  3.66039328E-09  3.66039328E-09  3.66039328E-09  3.66039328E-09  3.66039328E-09
    3.66039328E-09  3.66039328E-09  3.66039328E-09  3.66039328E-09  3.66039328E-09  3.66039328E-09  3.66039328E-09  3.66039328E-09  3.66039328E-09  3.66039328E-09  3.66039328E-09  3.66039328E-09  3.66039328E-09  3.66039328E-09  3.66039328E-09  3.66039328E-09  3.66039328E-09  3.66039328E-09  3.66039328E-09  3.66039328E-09
    3.66039328E-09  3.66039328E-09  3.66039328E-09  3.66039328E-09  3.66039328E-09  3.66039328E-09  3.66039328E-09  3.66039328E-09  3.66039328E-09  3.66039328E-09  3.66039328E-09  3.66039328E-09  3.66039328E-09  3.66039328E-09  3.66039328E-09  3.66039328E-09  3.66039328E-09  3.66039328E-09  3.66039328E-09  3.66039328E-09
    3.66039328E-09  3.66039328E-09  3.66039328E-09  3.66039328E-09  3.66039328E-09  3.66039328E-09  3.66039328E-09  3.66039328E-09  3.66039328E-09  3.66039328E-09  3.66039328E-09  3.66039328E-09  3.66039328E-09  3.66039328E-09  3.66039328E-09  3.66039328E-09  3.66039328E-09  3.66039328E-09  3.66039328E-09  3.66039328E-09
    3.66039328E-09  3.66039328E-09  3.66039328E-09  3.66039328E-09  3.66039328E-09  3.66039328E-09  3.66039328E-09  3.66039328E-09  3.66039328E-09  3.66039328E-09  3.66039328E-09  3.66039328E-09  3.66039328E-09  3.66039328E-09  3.66039328E-09  3.66039328E-09  3.66039328E-09  3.66039328E-09  3.66039328E-09  3.66039328E-09
    3.66039328E-09  3.66039328E-09  3.66039328E-09
    3.66039328E-09  3.66039328E-09  3.66039328E-09  3.66039328E-09  3.66039328E-09  3.66039328E-09  3.66039328E-09  3.66039328E-09  3.66039328E-09  3.66039328E-09  3.66039328E-09  3.66039328E-09  3.66039328E-09  3.66039328E-09  3.66039328E-09  3.66039328E-09  3.66039328E-09  3.66039328E-09  3.66039328E-09  3.66039328E-09
    3.66039328E-09  3.66039328E-09  3.66039328E-09  3.66039328E-09  3.66039328E-09  3.66039328E-09  3.66039328E-09  3.66039328E-09  3.66039328E-09  3.66039328E-09  3.66039328E-09  3.66039328E-09  3.66039328E-09  3.66039328E-09  3.66039328E-09  3.66039328E-09  3.66039328E-09  3.66039328E-09  3.66039328E-09  3.66039328E-09
    3.66039328E-09  3.66039328E-09  3.66039328E-09  3.66039328E-09  3.66039328E-09  3.66039328E-09  3.66039328E-09  3.66039328E-09  3.66039328E-09  3.66039328E-09  3.66039328E-09  3.66039328E-09  3.66039328E-09  3.66039328E-09  3.66039328E-09  3.66039328E-09  3.66039328E-09  3.66039328E-09  3.66039328E-09  3.66039328E-09
    3.66039328E-09  3.66039328E-09  3.66039328E-09  3.66039328E-09  3.66039328E-09  3.66039328E-09  3.66039328E-09  3.66039328E-09  3.66039328E-09  3.66039328E-09  3.66039328E-09  3.66039328E-09  3.66039328E-09  3.66039328E-09  3.66039328E-09  3.66039328E-09  3.66039328E-09  3.66039328E-09  3.66039328E-09  3.66039328E-09
    3.66039328E-09  3.66039328E-09  3.66039328E-09  3.66039328E-09  3.66039328E-09  3.66039328E-09  3.66039328E-09  3.66039328E-09  3.66039328E-09  3.66039328E-09  3.66039328E-09  3.66039328E-09  3.66039328E-09  3.66039328E-09  3.66039328E-09  3.66039328E-09  3.66039328E-09  3.66039328E-09  3.66039328E-09  3.66039328E-09
    3.66039328E-09  3.66039328E-09  3.66039328E-09  3.66039328E-09  3.66039328E-09  3.66039328E-09  3.66039328E-09  3.66039328E-09  3.66039328E-09  3.66039328E-09  3.66039328E-09  3.66039328E-09  3.66039328E-09  3.66039328E-09  3.66039328E-09  3.66039328E-09  3.66039328E-09  3.66039328E-09  3.66039328E-09  3.66039328E-09
    3.66039328E-09  3.66039328E-09  3.66039328E-09  3.66039328E-09  3.66039328E-09  3.66039328E-09  3.66039328E-09  3.66039328E-09  3.66039328E-09  3.66039328E-09  3.66039328E-09  3.66039328E-09  3.66039328E-09  3.66039328E-09  3.66039328E-09  3.66039328E-09  3.66039328E-09  3.66039328E-09  3.66039328E-09  3.66039328E-09
    3.66039328E-09  3.66039328E-09  3.66039328E-09  3.66039328E-09  3.66039328E-09  3.66039328E-09  3.66039328E-09  3.66039328E-09  3.66039328E-09  3.66039328E-09  3.66039328E-09  3.66039328E-09  3.66039328E-09  3.66039328E-09  3.66039328E-09  3.66039328E-09  3.66039328E-09  3.66039328E-09  3.66039328E-09  3.66039328E-09
    3.66039328E-09  3.66039328E-09  3.66039328E-09  3.66039328E-09  3.66039328E-09  3.66039328E-09  3.66039328E-09  3.66039328E-09  3.66039328E-09  3.66039328E-09  3.66039328E-09  3.66039328E-09  3.66039328E-09  3.66039328E-09  3.66039328E-09  3.66039328E-09  3.66039328E-09  3.66039328E-09  3.66039328E-09  3.66039328E-09
    3.66039328E-09  3.66039328E-09  3.66039328E-09
    3.66039328E-09  3.66039328E-09  3.66039328E-09  3.66039328E-09  3.66039328E-09  3.66039328E-09  3.66039328E-09  3.66039328E-09  3.66039328E-09  3.66039328E-09  3.66039328E-09  3.66039328E-09  3.66039328E-09  3.66039328E-09  3.66039328E-09  3.66039328E-09  3.66039328E-09  3.66039328E-09  3.66039328E-09  3.66039328E-09
    3.66039328E-09  3.66039328E-09  3.66039328E-09  3.66039328E-09  3.66039328E-09  3.66039328E-09  3.66039328E-09  3.66039328E-09  3.66039328E-09  3.66039328E-09  3.66039328E-09  3.66039328E-09  3.66039328E-09  3.66039328E-09  3.66039328E-09  3.66039328E-09  3.66039328E-09  3.66039328E-09  3.66039328E-09  3.66039328E-09
    3.66039328E-09  3.66039328E-09  3.66039328E-09  3.66039328E-09  3.66039328E-09  3.66039328E-09  3.66039328E-09  3.66039328E-09  3.66039328E-09  3.66039328E-09  3.66039328E-09  3.66039328E-09  3.66039328E-09  3.66039328E-09  3.66039328E-09  3.66039328E-09  3.66039328E-09  3.66039328E-09  3.66039328E-09  3.66039328E-09
    3.66039328E-09  3.66039328E-09  3.66039328E-09  3.66039328E-09  3.66039328E-09  3.66039328E-09  3.66039328E-09  3.66039328E-09  3.66039328E-09  3.66039328E-09  3.66039328E-09  3.66039328E-09  3.66039328E-09  3.66039328E-09  3.66039328E-09  3.66039328E-09  3.66039328E-09  3.66039328E-09  3.66039328E-09  3.66039328E-09
    3.66039328E-09  3.66039328E-09  3.66039328E-09  3.66039328E-09  3.66039328E-09  3.66039328E-09  3.66039328E-09  3.66039328E-09  3.66039328E-09  3.66039328E-09  3.66039328E-09  3.66039328E-09  3.66039328E-09  3.66039328E-09  3.66039328E-09  3.66039328E-09  3.66039328E-09  3.66039328E-09  3.66039328E-09  3.66039328E-09
    3.66039328E-09  3.66039328E-09  3.66039328E-09  3.66039328E-09  3.66039328E-09  3.66039328E-09  3.66039328E-09  3.66039328E-09  3.66039328E-09  3.66039328E-09  3.66039328E-09  3.66039328E-09  3.66039328E-09  3.66039328E-09  3.66039328E-09  3.66039328E-09  3.66039328E-09  3.66039328E-09  3.66039328E-09  3.66039328E-09
    3.66039328E-09  3.66039328E-09  3.66039328E-09  3.66039328E-09  3.66039328E-09  3.66039328E-09  3.66039328E-09  3.66039328E-09  3.66039328E-09  3.66039328E-09  3.66039328E-09  3.66039328E-09  3.66039328E-09  3.66039328E-09  3.66039328E-09  3.66039328E-09  3.66039328E-09  3.66039328E-09  3.66039328E-09  3.66039328E-09
    3.66039328E-09  3.66039328E-09  3.66039328E-09  3.66039328E-09  3.66039328E-09  3.66039328E-09  3.66039328E-09  3.66039328E-09  3.66039328E-09  3.66039328E-09  3.66039328E-09  3.66039328E-09  3.66039328E-09  3.66039328E-09  3.66039328E-09  3.66039328E-09  3.66039328E-09  3.66039328E-09  3.66039328E-09  3.66039328E-09
    3.66039328E-09  3.66039328E-09  3.66039328E-09  3.66039328E-09  3.66039328E-09  3.66039328E-09  3.66039328E-09  3.66039328E-09  3.66039328E-09  3.66039328E-09  3.66039328E-09  3.66039328E-09  3.66039328E-09  3.66039328E-09  3.66039328E-09  3.66039328E-09  3.66039328E-09  3.66039328E-09  3.66039328E-09  3.66039328E-09
    3.66039328E-09  3.66039328E-09  3.66039328E-09
    3.66039328E-09  3.66039328E-09  3.66039328E-09  3.66039328E-09  3.66039328E-09  3.66039328E-09  3.66039328E-09  3.66039328E-09  3.66039328E-09  3.66039328E-09  3.66039328E-09  3.66039328E-09  3.66039328E-09  3.66039328E-09  3.66039328E-09  3.66039328E-09  3.66039328E-09  3.66039328E-09  3.66039328E-09  3.66039328E-09
    3.66039328E-09  3.66039328E-09  3.66039328E-09  3.66039328E-09  3.66039328E-09  3.66039328E-09  3.66039328E-09  3.66039328E-09  3.66039328E-09  3.66039328E-09  3.66039328E-09  3.66039328E-09  3.66039328E-09  3.66039328E-09  3.66039328E-09  3.66039328E-09  3.66039328E-09  3.66039328E-09  3.66039328E-09  3.66039328E-09
    3.66039328E-09  3.66039328E-09  3.66039328E-09  3.66039328E-09  3.66039328E-09  3.66039328E-09  3.66039328E-09  3.66039328E-09  3.66039328E-09  3.66039328E-09  3.66039328E-09  3.66039328E-09  3.66039328E-09  3.66039328E-09  3.66039328E-09  3.66039328E-09  3.66039328E-09  3.66039328E-09  3.66039328E-09  3.66039328E-09
    3.66039328E-09  3.66039328E-09  3.66039328E-09  3.66039328E-09  3.66039328E-09  3.66039328E-09  3.66039328E-09  3.66039328E-09  3.66039328E-09  3.66039328E-09  3.66039328E-09  3.66039328E-09  3.66039328E-09  3.66039328E-09  3.66039328E-09  3.66039328E-09  3.66039328E-09  3.66039328E-09  3.66039328E-09  3.66039328E-09
    3.66039328E-09  3.66039328E-09  3.66039328E-09  3.66039328E-09  3.66039328E-09  3.66039328E-09  3.66039328E-09  3.66039328E-09  3.66039328E-09  3.66039328E-09  3.66039328E-09  3.66039328E-09  3.66039328E-09  3.66039328E-09  3.66039328E-09  3.66039328E-09  3.66039328E-09  3.66039328E-09  3.66039328E-09  3.66039328E-09
    3.66039328E-09  3.66039328E-09  3.66039328E-09  3.66039328E-09  3.66039328E-09  3.66039328E-09  3.66039328E-09  3.66039328E-09  3.66039328E-09  3.66039328E-09  3.66039328E-09  3.66039328E-09  3.66039328E-09  3.66039328E-09  3.66039328E-09  3.66039328E-09  3.66039328E-09  3.66039328E-09  3.66039328E-09  3.66039328E-09
    3.66039328E-09  3.66039328E-09  3.66039328E-09  3.66039328E-09  3.66039328E-09  3.66039328E-09  3.66039328E-09  3.66039328E-09  3.66039328E-09  3.66039328E-09  3.66039328E-09  3.66039328E-09  3.66039328E-09  3.66039328E-09  3.66039328E-09  3.66039328E-09  3.66039328E-09  3.66039328E-09  3.66039328E-09  3.66039328E-09
    3.66039328E-09  3.66039328E-09  3.66039328E-09  3.66039328E-09  3.66039328E-09  3.66039328E-09  3.66039328E-09  3.66039328E-09  3.66039328E-09  3.66039328E-09  3.66039328E-09  3.66039328E-09  3.66039328E-09  3.66039328E-09  3.66039328E-09  3.66039328E-09  3.66039328E-09  3.66039328E-09  3.66039328E-09  3.66039328E-09
    3.66039328E-09  3.66039328E-09  3.66039328E-09  3.66039328E-09  3.66039328E-09  3.66039328E-09  3.66039328E-09  3.66039328E-09  3.66039328E-09  3.66039328E-09  3.66039328E-09  3.66039328E-09  3.66039328E-09  3.66039328E-09  3.66039328E-09  3.66039328E-09  3.66039328E-09  3.66039328E-09  3.66039328E-09  3.66039328E-09
    3.66039328E-09  3.66039328E-09  3.66039328E-09
    3.66039328E-09  3.66039328E-09  3.66039328E-09  3.66039328E-09  3.66039328E-09  3.66039328E-09  3.66039328E-09  3.66039328E-09  3.66039328E-09  3.66039328E-09  3.66039328E-09  3.66039328E-09  3.66039328E-09  3.66039328E-09  3.66039328E-09  3.66039328E-09  3.66039328E-09  3.66039328E-09  3.66039328E-09  3.66039328E-09
    3.66039328E-09  3.66039328E-09  3.66039328E-09  3.66039328E-09  3.66039328E-09  3.66039328E-09  3.66039328E-09  3.66039328E-09  3.66039328E-09  3.66039328E-09  3.66039328E-09  3.66039328E-09  3.66039328E-09  3.66039328E-09  3.66039328E-09  3.66039328E-09  3.66039328E-09  3.66039328E-09  3.66039328E-09  3.66039328E-09
    3.66039328E-09  3.66039328E-09  3.66039328E-09  3.66039328E-09  3.66039328E-09  3.66039328E-09  3.66039328E-09  3.66039328E-09  3.66039328E-09  3.66039328E-09  3.66039328E-09  3.66039328E-09  3.66039328E-09  3.66039328E-09  3.66039328E-09  3.66039328E-09  3.66039328E-09  3.66039328E-09  3.66039328E-09  3.66039328E-09
    3.66039328E-09  3.66039328E-09  3.66039328E-09  3.66039328E-09  3.66039328E-09  3.66039328E-09  3.66039328E-09  3.66039328E-09  3.66039328E-09  3.66039328E-09  3.66039328E-09  3.66039328E-09  3.66039328E-09  3.66039328E-09  3.66039328E-09  3.66039328E-09  3.66039328E-09  3.66039328E-09  3.66039328E-09  3.66039328E-09
    3.66039328E-09  3.66039328E-09  3.66039328E-09  3.66039328E-09  3.66039328E-09  3.66039328E-09  3.66039328E-09  3.66039328E-09  3.66039328E-09  3.66039328E-09  3.66039328E-09  3.66039328E-09  3.66039328E-09  3.66039328E-09  3.66039328E-09  3.66039328E-09  3.66039328E-09  3.66039328E-09  3.66039328E-09  3.66039328E-09
    3.66039328E-09  3.66039328E-09  3.66039328E-09  3.66039328E-09  3.66039328E-09  3.66039328E-09  3.66039328E-09  3.66039328E-09  3.66039328E-09  3.66039328E-09  3.66039328E-09  3.66039328E-09  3.66039328E-09  3.66039328E-09  3.66039328E-09  3.66039328E-09  3.66039328E-09  3.66039328E-09  3.66039328E-09  3.66039328E-09
    3.66039328E-09  3.66039328E-09  3.66039328E-09  3.66039328E-09  3.66039328E-09  3.66039328E-09  3.66039328E-09  3.66039328E-09  3.66039328E-09  3.66039328E-09  3.66039328E-09  3.66039328E-09  3.66039328E-09  3.66039328E-09  3.66039328E-09  3.66039328E-09  3.66039328E-09  3.66039328E-09  3.66039328E-09  3.66039328E-09
    3.66039328E-09  3.66039328E-09  3.66039328E-09  3.66039328E-09  3.66039328E-09  3.66039328E-09  3.66039328E-09  3.66039328E-09  3.66039328E-09  3.66039328E-09  3.66039328E-09  3.66039328E-09  3.66039328E-09  3.66039328E-09  3.66039328E-09  3.66039328E-09  3.66039328E-09  3.66039328E-09  3.66039328E-09  3.66039328E-09
    3.66039328E-09  3.66039328E-09  3.66039328E-09  3.66039328E-09  3.66039328E-09  3.66039328E-09  3.66039328E-09  3.66039328E-09  3.66039328E-09  3.66039328E-09  3.66039328E-09  3.66039328E-09  3.66039328E-09  3.66039328E-09  3.66039328E-09  3.66039328E-09  3.66039328E-09  3.66039328E-09  3.66039328E-09  3.66039328E-09
    3.66039328E-09  3.66039328E-09  3.66039328E-09
    3.66039328E-09  3.66039328E-09  3.66039328E-09  3.66039328E-09  3.66039328E-09  3.66039328E-09  3.66039328E-09  3.66039328E-09  3.66039328E-09  3.66039328E-09  3.66039328E-09  3.66039328E-09  3.66039328E-09  3.66039328E-09  3.66039328E-09  3.66039328E-09  3.66039328E-09  3.66039328E-09  3.66039328E-09  3.66039328E-09
    3.66039328E-09  3.66039328E-09  3.66039328E-09  3.66039328E-09  3.66039328E-09  3.66039328E-09  3.66039328E-09  3.66039328E-09  3.66039328E-09  3.66039328E-09  3.66039328E-09  3.66039328E-09  3.66039328E-09  3.66039328E-09  3.66039328E-09  3.66039328E-09  3.66039328E-09  3.66039328E-09  3.66039328E-09  3.66039328E-09
    3.66039328E-09  3.66039328E-09  3.66039328E-09  3.66039328E-09  3.66039328E-09  3.66039328E-09  3.66039328E-09  3.66039328E-09  3.66039328E-09  3.66039328E-09  3.66039328E-09  3.66039328E-09  3.66039328E-09  3.66039328E-09  3.66039328E-09  3.66039328E-09  3.66039328E-09  3.66039328E-09  3.66039328E-09  3.66039328E-09
    3.66039328E-09  3.66039328E-09  3.66039328E-09  3.66039328E-09  3.66039328E-09  3.66039328E-09  3.66039328E-09  3.66039328E-09  3.66039328E-09  3.66039328E-09  3.66039328E-09  3.66039328E-09  3.66039328E-09  3.66039328E-09  3.66039328E-09  3.66039328E-09  3.66039328E-09  3.66039328E-09  3.66039328E-09  3.66039328E-09
    3.66039328E-09  3.66039328E-09  3.66039328E-09  3.66039328E-09  3.66039328E-09  3.66039328E-09  3.66039328E-09  3.66039328E-09  3.66039328E-09  3.66039328E-09  3.66039328E-09  3.66039328E-09  3.66039328E-09  3.66039328E-09  3.66039328E-09  3.66039328E-09  3.66039328E-09  3.66039328E-09  3.66039328E-09  3.66039328E-09
    3.66039328E-09  3.66039328E-09  3.66039328E-09  3.66039328E-09  3.66039328E-09  3.66039328E-09  3.66039328E-09  3.66039328E-09  3.66039328E-09  3.66039328E-09  3.66039328E-09  3.66039328E-09  3.66039328E-09  3.66039328E-09  3.66039328E-09  3.66039328E-09  3.66039328E-09  3.66039328E-09  3.66039328E-09  3.66039328E-09
    3.66039328E-09  3.66039328E-09  3.66039328E-09  3.66039328E-09  3.66039328E-09  3.66039328E-09  3.66039328E-09  3.66039328E-09  3.66039328E-09  3.66039328E-09  3.66039328E-09  3.66039328E-09  3.66039328E-09  3.66039328E-09  3.66039328E-09  3.66039328E-09  3.66039328E-09  3.66039328E-09  3.66039328E-09  3.66039328E-09
    3.66039328E-09  3.66039328E-09  3.66039328E-09  3.66039328E-09  3.66039328E-09  3.66039328E-09  3.66039328E-09  3.66039328E-09  3.66039328E-09  3.66039328E-09  3.66039328E-09  3.66039328E-09  3.66039328E-09  3.66039328E-09  3.66039328E-09  3.66039328E-09  3.66039328E-09  3.66039328E-09  3.66039328E-09  3.66039328E-09
    3.66039328E-09  3.66039328E-09  3.66039328E-09  3.66039328E-09  3.66039328E-09  3.66039328E-09  3.66039328E-09  3.66039328E-09  3.66039328E-09  3.66039328E-09  3.66039328E-09  3.66039328E-09  3.66039328E-09  3.66039328E-09  3.66039328E-09  3.66039328E-09  3.66039328E-09  3.66039328E-09  3.66039328E-09  3.66039328E-09
    3.66039328E-09  3.66039328E-09  3.66039328E-09
    3.66039328E-09  3.66039328E-09  3.66039328E-09  3.66039328E-09  3.66039328E-09  3.66039328E-09  3.66039328E-09  3.66039328E-09  3.66039328E-09  3.66039328E-09  3.66039328E-09  3.66039328E-09  3.66039328E-09  3.66039328E-09  3.66039328E-09  3.66039328E-09  3.66039328E-09  3.66039328E-09  3.66039328E-09  3.66039328E-09
    3.66039328E-09  3.66039328E-09  3.66039328E-09  3.66039328E-09  3.66039328E-09  3.66039328E-09  3.66039328E-09  3.66039328E-09  3.66039328E-09  3.66039328E-09  3.66039328E-09  3.66039328E-09  3.66039328E-09  3.66039328E-09  3.66039328E-09  3.66039328E-09  3.66039328E-09  3.66039328E-09  3.66039328E-09  3.66039328E-09
    3.66039328E-09  3.66039328E-09  3.66039328E-09  3.66039328E-09  3.66039328E-09  3.66039328E-09  3.66039328E-09  3.66039328E-09  3.66039328E-09  3.66039328E-09  3.66039328E-09  3.66039328E-09  3.66039328E-09  3.66039328E-09  3.66039328E-09  3.66039328E-09  3.66039328E-09  3.66039328E-09  3.66039328E-09  3.66039328E-09
    3.66039328E-09  3.66039328E-09  3.66039328E-09  3.66039328E-09  3.66039328E-09  3.66039328E-09  3.66039328E-09  3.66039328E-09  3.66039328E-09  3.66039328E-09  3.66039328E-09  3.66039328E-09  3.66039328E-09  3.66039328E-09  3.66039328E-09  3.66039328E-09  3.66039328E-09  3.66039328E-09  3.66039328E-09  3.66039328E-09
    3.66039328E-09  3.66039328E-09  3.66039328E-09  3.66039328E-09  3.66039328E-09  3.66039328E-09  3.66039328E-09  3.66039328E-09  3.66039328E-09  3.66039328E-09  3.66039328E-09  3.66039328E-09  3.66039328E-09  3.66039328E-09  3.66039328E-09  3.66039328E-09  3.66039328E-09  3.66039328E-09  3.66039328E-09  3.66039328E-09
    3.66039328E-09  3.66039328E-09  3.66039328E-09  3.66039328E-09  3.66039328E-09  3.66039328E-09  3.66039328E-09  3.66039328E-09  3.66039328E-09  3.66039328E-09  3.66039328E-09  3.66039328E-09  3.66039328E-09  3.66039328E-09  3.66039328E-09  3.66039328E-09  3.66039328E-09  3.66039328E-09  3.66039328E-09  3.66039328E-09
    3.66039328E-09  3.66039328E-09  3.66039328E-09  3.66039328E-09  3.66039328E-09  3.66039328E-09  3.66039328E-09  3.66039328E-09  3.66039328E-09  3.66039328E-09  3.66039328E-09  3.66039328E-09  3.66039328E-09  3.66039328E-09  3.66039328E-09  3.66039328E-09  3.66039328E-09  3.66039328E-09  3.66039328E-09  3.66039328E-09
    3.66039328E-09  3.66039328E-09  3.66039328E-09  3.66039328E-09  3.66039328E-09  3.66039328E-09  3.66039328E-09  3.66039328E-09  3.66039328E-09  3.66039328E-09  3.66039328E-09  3.66039328E-09  3.66039328E-09  3.66039328E-09  3.66039328E-09  3.66039328E-09  3.66039328E-09  3.66039328E-09  3.66039328E-09  3.66039328E-09
    3.66039328E-09  3.66039328E-09  3.66039328E-09  3.66039328E-09  3.66039328E-09  3.66039328E-09  3.66039328E-09  3.66039328E-09  3.66039328E-09  3.66039328E-09  3.66039328E-09  3.66039328E-09  3.66039328E-09  3.66039328E-09  3.66039328E-09  3.66039328E-09  3.66039328E-09  3.66039328E-09  3.66039328E-09  3.66039328E-09
    3.66039328E-09  3.66039328E-09  3.66039328E-09
    3.66039328E-09  3.66039328E-09  3.66039328E-09  3.66039328E-09  3.66039328E-09  3.66039328E-09  3.66039328E-09  3.66039328E-09  3.66039328E-09  3.66039328E-09  3.66039328E-09  3.66039328E-09  3.66039328E-09  3.66039328E-09  3.66039328E-09  3.66039328E-09  3.66039328E-09  3.66039328E-09  3.66039328E-09  3.66039328E-09
    3.66039328E-09  3.66039328E-09  3.66039328E-09  3.66039328E-09  3.66039328E-09  3.66039328E-09  3.66039328E-09  3.66039328E-09  3.66039328E-09  3.66039328E-09  3.66039328E-09  3.66039328E-09  3.66039328E-09  3.66039328E-09  3.66039328E-09  3.66039328E-09  3.66039328E-09  3.66039328E-09  3.66039328E-09  3.66039328E-09
    3.66039328E-09  3.66039328E-09  3.66039328E-09  3.66039328E-09  3.66039328E-09  3.66039328E-09  3.66039328E-09  3.66039328E-09  3.66039328E-09  3.66039328E-09  3.66039328E-09  3.66039328E-09  3.66039328E-09  3.66039328E-09  3.66039328E-09  3.66039328E-09  3.66039328E-09  3.66039328E-09  3.66039328E-09  3.66039328E-09
    3.66039328E-09  3.66039328E-09  3.66039328E-09  3.66039328E-09  3.66039328E-09  3.66039328E-09  3.66039328E-09  3.66039328E-09  3.66039328E-09  3.66039328E-09  3.66039328E-09  3.66039328E-09  3.66039328E-09  3.66039328E-09  3.66039328E-09  3.66039328E-09  3.66039328E-09  3.66039328E-09  3.66039328E-09  3.66039328E-09
    3.66039328E-09  3.66039328E-09  3.66039328E-09  3.66039328E-09  3.66039328E-09  3.66039328E-09  3.66039328E-09  3.66039328E-09  3.66039328E-09  3.66039328E-09  3.66039328E-09  3.66039328E-09  3.66039328E-09  3.66039328E-09  3.66039328E-09  3.66039328E-09  3.66039328E-09  3.66039328E-09  3.66039328E-09  3.66039328E-09
    3.66039328E-09  3.66039328E-09  3.66039328E-09  3.66039328E-09  3.66039328E-09  3.66039328E-09  3.66039328E-09  3.66039328E-09  3.66039328E-09  3.66039328E-09  3.66039328E-09  3.66039328E-09  3.66039328E-09  3.66039328E-09  3.66039328E-09  3.66039328E-09  3.66039328E-09  3.66039328E-09  3.66039328E-09  3.66039328E-09
    3.66039328E-09  3.66039328E-09  3.66039328E-09  3.66039328E-09  3.66039328E-09  3.66039328E-09  3.66039328E-09  3.66039328E-09  3.66039328E-09  3.66039328E-09  3.66039328E-09  3.66039328E-09  3.66039328E-09  3.66039328E-09  3.66039328E-09  3.66039328E-09  3.66039328E-09  3.66039328E-09  3.66039328E-09  3.66039328E-09
    3.66039328E-09  3.66039328E-09  3.66039328E-09  3.66039328E-09  3.66039328E-09  3.66039328E-09  3.66039328E-09  3.66039328E-09  3.66039328E-09  3.66039328E-09  3.66039328E-09  3.66039328E-09  3.66039328E-09  3.66039328E-09  3.66039328E-09  3.66039328E-09  3.66039328E-09  3.66039328E-09  3.66039328E-09  3.66039328E-09
    3.66039328E-09  3.66039328E-09  3.66039328E-09  3.66039328E-09  3.66039328E-09  3.66039328E-09  3.66039328E-09  3.66039328E-09  3.66039328E-09  3.66039328E-09  3.66039328E-09  3.66039328E-09  3.66039328E-09  3.66039328E-09  3.66039328E-09  3.66039328E-09  3.66039328E-09  3.66039328E-09  3.66039328E-09  3.66039328E-09
    3.66039328E-09  3.66039328E-09  3.66039328E-09
    3.66039328E-09  3.66039328E-09  3.66039328E-09  3.66039328E-09  3.66039328E-09  3.66039328E-09  3.66039328E-09  3.66039328E-09  3.66039328E-09  3.66039328E-09  3.66039328E-09  3.66039328E-09  3.66039328E-09  3.66039328E-09  3.66039328E-09  3.66039328E-09  3.66039328E-09  3.66039328E-09  3.66039328E-09  3.66039328E-09
    3.66039328E-09  3.66039328E-09  3.66039328E-09  3.66039328E-09  3.66039328E-09  3.66039328E-09  3.66039328E-09  3.66039328E-09  3.66039328E-09  3.66039328E-09  3.66039328E-09  3.66039328E-09  3.66039328E-09  3.66039328E-09  3.66039328E-09  3.66039328E-09  3.66039328E-09  3.66039328E-09  3.66039328E-09  3.66039328E-09
    3.66039328E-09  3.66039328E-09  3.66039328E-09  3.66039328E-09  3.66039328E-09  3.66039328E-09  3.66039328E-09  3.66039328E-09  3.66039328E-09  3.66039328E-09  3.66039328E-09  3.66039328E-09  3.66039328E-09  3.66039328E-09  3.66039328E-09  3.66039328E-09  3.66039328E-09  3.66039328E-09  3.66039328E-09  3.66039328E-09
    3.66039328E-09  3.66039328E-09  3.66039328E-09  3.66039328E-09  3.66039328E-09  3.66039328E-09  3.66039328E-09  3.66039328E-09  3.66039328E-09  3.66039328E-09  3.66039328E-09  3.66039328E-09  3.66039328E-09  3.66039328E-09  3.66039328E-09  3.66039328E-09  3.66039328E-09  3.66039328E-09  3.66039328E-09  3.66039328E-09
    3.66039328E-09  3.66039328E-09  3.66039328E-09  3.66039328E-09  3.66039328E-09  3.66039328E-09  3.66039328E-09  3.66039328E-09  3.66039328E-09  3.66039328E-09  3.66039328E-09  3.66039328E-09  3.66039328E-09  3.66039328E-09  3.66039328E-09  3.66039328E-09  3.66039328E-09  3.66039328E-09  3.66039328E-09  3.66039328E-09
    3.66039328E-09  3.66039328E-09  3.66039328E-09  3.66039328E-09  3.66039328E-09  3.66039328E-09  3.66039328E-09  3.66039328E-09  3.66039328E-09  3.66039328E-09  3.66039328E-09  3.66039328E-09  3.66039328E-09  3.66039328E-09  3.66039328E-09  3.66039328E-09  3.66039328E-09  3.66039328E-09  3.66039328E-09  3.66039328E-09
    3.66039328E-09  3.66039328E-09  3.66039328E-09  3.66039328E-09  3.66039328E-09  3.66039328E-09  3.66039328E-09  3.66039328E-09  3.66039328E-09  3.66039328E-09  3.66039328E-09  3.66039328E-09  3.66039328E-09  3.66039328E-09  3.66039328E-09  3.66039328E-09  3.66039328E-09  3.66039328E-09  3.66039328E-09  3.66039328E-09
    3.66039328E-09  3.66039328E-09  3.66039328E-09  3.66039328E-09  3.66039328E-09  3.66039328E-09  3.66039328E-09  3.66039328E-09  3.66039328E-09  3.66039328E-09  3.66039328E-09  3.66039328E-09  3.66039328E-09  3.66039328E-09  3.66039328E-09  3.66039328E-09  3.66039328E-09  3.66039328E-09  3.66039328E-09  3.66039328E-09
    3.66039328E-09  3.66039328E-09  3.66039328E-09  3.66039328E-09  3.66039328E-09  3.66039328E-09  3.66039328E-09  3.66039328E-09  3.66039328E-09  3.66039328E-09  3.66039328E-09  3.66039328E-09  3.66039328E-09  3.66039328E-09  3.66039328E-09  3.66039328E-09  3.66039328E-09  3.66039328E-09  3.66039328E-09  3.66039328E-09
    3.66039328E-09  3.66039328E-09  3.66039328E-09