BEGIN options
END options

BEGIN packages
  DIS6  multi_l.dis  dis
  IC6  multi_l.ic  ic
  OC6  multi_l.oc  oc
  NPF6  multi_l.npf  npf
  RCH6  multi_l.rcha  rch
  CHD6  sea.chd  sea
END packages

