BEGIN griddata
  strt  LAYERED
    INTERNAL  FACTOR  1.0
        9999.80039062    9999.80039062    9999.80039062    9999.80039062    9999.80039062    9999.80039062    9999.80039062    9999.80039062    9999.80039062    9999.80039062    9999.80039062    9999.80039062    9999.80039062    9999.80039062    9999.80039062    9999.80039062    9999.80039062    9999.80039062    9999.80039062    9999.80039062
        9999.80039062    9999.80039062    9999.80039062    9999.80039062    9999.80039062    9999.80039062    9999.80039062    9999.80039062    9999.80039062    9999.80039062    9999.80039062    9999.80039062    9999.80039062    9999.80039062    9999.80039062    9999.80039062    9999.80039062    9999.80039062    9999.80039062    9999.80039062
        9999.80039062    9999.80039062    9999.80039062    9999.80039062    9999.80039062    9999.80039062    9999.80039062    9999.80039062    9999.80039062    9999.80039062    9999.80039062    9999.80039062    9999.80039062    9999.80039062    9999.80039062    9999.80039062    9999.80039062    9999.80039062    9999.80039062    9999.80039062
        9999.80039062    9999.80039062    9999.80039062    9999.80039062    9999.80039062    9999.80039062    9999.80039062    9999.80039062    9999.80039062    9999.80039062    9999.80039062    9999.80039062    9999.80039062    9999.80039062    9999.80039062    9999.80039062    9999.80039062    9999.80039062    9999.80039062    9999.80039062
        9999.80039062    9999.80039062    9999.80039062    9999.80039062    9999.80039062    9999.80039062    9999.80039062    9999.80039062    9999.80039062    9999.80039062    9999.80039062    9999.80039062    9999.80039062    9999.80039062    9999.80039062    9999.80039062    9999.80039062    9999.80039062    9999.80039062    9999.80039062
        9999.80039062    9999.80039062    9999.80039062    9999.80039062    9999.80039062    9999.80039062    9999.80039062    9999.80039062    9999.80039062    9999.80039062    9999.80039062    9999.80039062    9999.80039062    9999.80039062    9999.80039062    9999.80039062    9999.80039062    9999.80039062    9999.80039062    9999.80039062
        9999.80039062    9999.80039062    9999.80039062    9999.80039062    9999.80039062    9999.80039062    9999.80039062    9999.80039062    9999.80039062    9999.80039062    9999.80039062    9999.80039062    9999.80039062    9999.80039062    9999.80039062    9999.80039062    9999.80039062    9999.80039062    9999.80039062    9999.80039062
        9999.80039062    9999.80039062    9999.80039062    9999.80039062    9999.80039062    9999.80039062    9999.80039062    9999.80039062    9999.80039062    9999.80039062    9999.80039062    9999.80039062    9999.80039062    9999.80039062    9999.80039062    9999.80039062    9999.80039062    9999.80039062    9999.80039062    9999.80039062
        9999.80039062    9999.80039062    9999.80039062    9999.80039062    9999.80039062    9999.80039062    9999.80039062    9999.80039062    9999.80039062    9999.80039062    9999.80039062    9999.80039062    9999.80039062    9999.80039062    9999.80039062    9999.80039062    9999.80039062    9999.80039062    9999.80039062    9999.80039062
        9999.80039062    9999.80039062    9999.80039062
        9999.80039062    9999.80039062    9999.80039062    9999.80039062    9999.80039062    9999.80039062    9999.80039062    9999.80039062    9999.80039062    9999.80039062    9999.80039062    9999.80039062    9999.80039062    9999.80039062    9999.80039062    9999.80039062    9999.80039062    9999.80039062    9999.80039062    9999.80039062
        9999.80039062    9999.80039062    9999.80039062    9999.80039062    9999.80039062    9999.80039062    9999.80039062    9999.80039062    9999.80039062    9999.80039062    9999.80039062    9999.80039062    9999.80039062    9999.80039062    9999.80039062    9999.80039062    9999.80039062    9999.80039062    9999.80039062    9999.80039062
        9999.80039062    9999.80039062    9999.80039062    9999.80039062    9999.80039062    9999.80039062    9999.80039062    9999.80039062    9999.80039062    9999.80039062    9999.80039062    9999.80039062    9999.80039062    9999.80039062    9999.80039062    9999.80039062    9999.80039062    9999.80039062    9999.80039062    9999.80039062
        9999.80039062    9999.80039062    9999.80039062    9999.80039062    9999.80039062    9999.80039062    9999.80039062    9999.80039062    9999.80039062    9999.80039062    9999.80039062    9999.80039062    9999.80039062    9999.80039062    9999.80039062    9999.80039062    9999.80039062    9999.80039062    9999.80039062    9999.80039062
        9999.80039062    9999.80039062    9999.80039062    9999.80039062    9999.80039062    9999.80039062    9999.80039062    9999.80039062    9999.80039062    9999.80039062    9999.80039062    9999.80039062    9999.80039062    9999.80039062    9999.80039062    9999.80039062    9999.80039062    9999.80039062    9999.80039062    9999.80039062
        9999.80039062    9999.80039062    9999.80039062    9999.80039062    9999.80039062    9999.80039062    9999.80039062    9999.80039062    9999.80039062    9999.80039062    9999.80039062    9999.80039062    9999.80039062    9999.80039062    9999.80039062    9999.80039062    9999.80039062    9999.80039062    9999.80039062    9999.80039062
        9999.80039062    9999.80039062    9999.80039062    9999.80039062    9999.80039062    9999.80039062    9999.80039062    9999.80039062    9999.80039062    9999.80039062    9999.80039062    9999.80039062    9999.80039062    9999.80039062    9999.80039062    9999.80039062    9999.80039062    9999.80039062     -31.10000000     -62.79999924
         -63.59999847     -64.50000000     -65.20000076     -66.00000000     -66.79999924     -67.70000076     -68.50000000     -69.29999924     -70.40000153     -71.29999924     -72.40000153     -73.29999924     -74.70000076     -75.79999924     -77.50000000     -78.70000076     -79.70000076     -81.29999924     -82.79999924     -84.40000153
         -85.70000076     -87.50000000     -89.00000000     -91.00000000     -92.29999924     -93.80000305     -95.69999695     -97.30000305     -98.80000305    -100.50000000    -102.30000305    -103.50000000    -105.19999695    -105.90000153    -107.00000000    -107.80000305    -108.69999695    -109.59999847    -110.40000153    -111.40000153
        -112.30000305    -113.00000000    -113.69999695
        9999.80039062    9999.80039062    9999.80039062    9999.80039062    9999.80039062    9999.80039062    9999.80039062    9999.80039062    9999.80039062    9999.80039062    9999.80039062    9999.80039062    9999.80039062    9999.80039062    9999.80039062    9999.80039062    9999.80039062    9999.80039062    9999.80039062    9999.80039062
        9999.80039062    9999.80039062    9999.80039062    9999.80039062    9999.80039062    9999.80039062    9999.80039062    9999.80039062    9999.80039062    9999.80039062    9999.80039062    9999.80039062    9999.80039062    9999.80039062    9999.80039062    9999.80039062    9999.80039062    9999.80039062    9999.80039062    9999.80039062
        9999.80039062    9999.80039062    9999.80039062    9999.80039062    9999.80039062    9999.80039062    9999.80039062    9999.80039062    9999.80039062    9999.80039062    9999.80039062    9999.80039062    9999.80039062    9999.80039062    9999.80039062    9999.80039062    9999.80039062    9999.80039062    9999.80039062    9999.80039062
        9999.80039062    9999.80039062    9999.80039062    9999.80039062    9999.80039062    9999.80039062    9999.80039062    9999.80039062    9999.80039062    9999.80039062    9999.80039062    9999.80039062    9999.80039062    9999.80039062    9999.80039062    9999.80039062    9999.80039062    9999.80039062    9999.80039062    9999.80039062
        9999.80039062    9999.80039062    9999.80039062    9999.80039062    9999.80039062    9999.80039062    9999.80039062    9999.80039062    9999.80039062    9999.80039062    9999.80039062    9999.80039062    9999.80039062    9999.80039062    9999.80039062    9999.80039062    9999.80039062    9999.80039062    9999.80039062    9999.80039062
        9999.80039062    9999.80039062    9999.80039062    9999.80039062    9999.80039062    9999.80039062    9999.80039062    9999.80039062    9999.80039062    9999.80039062    9999.80039062    9999.80039062    9999.80039062    9999.80039062    9999.80039062    9999.80039062    9999.80039062    9999.80039062    9999.80039062    9999.80039062
        9999.80039062    9999.80039062    9999.80039062    9999.80039062    9999.80039062    9999.80039062    9999.80039062    9999.80039062    9999.80039062    9999.80039062    9999.80039062    9999.80039062    9999.80039062    9999.80039062    9999.80039062    9999.80039062    9999.80039062     -28.90000114     -61.00000000     -63.00000000
         -63.79999924     -64.79999924     -65.29999924     -66.20000076     -67.00000000     -68.00000000     -68.79999924     -69.50000000     -70.70000076     -71.59999847     -72.79999924     -73.59999847     -75.00000000     -76.00000000     -78.00000000     -78.79999924     -80.00000000     -81.50000000     -83.29999924     -84.90000153
         -86.09999847     -87.79999924     -89.29999924     -91.29999924     -92.70000076     -94.30000305     -96.09999847     -97.80000305     -99.19999695    -101.00000000    -102.59999847    -103.80000305    -105.30000305    -106.19999695    -107.19999695    -108.40000153    -109.19999695    -109.80000305    -110.80000305    -111.59999847
        -112.50000000    -113.30000305    -114.09999847
        9999.80039062    9999.80039062    9999.80039062    9999.80039062    9999.80039062    9999.80039062    9999.80039062    9999.80039062    9999.80039062    9999.80039062    9999.80039062    9999.80039062    9999.80039062    9999.80039062    9999.80039062    9999.80039062    9999.80039062    9999.80039062    9999.80039062    9999.80039062
        9999.80039062    9999.80039062    9999.80039062    9999.80039062    9999.80039062    9999.80039062    9999.80039062    9999.80039062    9999.80039062    9999.80039062    9999.80039062    9999.80039062    9999.80039062    9999.80039062    9999.80039062    9999.80039062    9999.80039062    9999.80039062    9999.80039062    9999.80039062
        9999.80039062    9999.80039062    9999.80039062    9999.80039062    9999.80039062    9999.80039062    9999.80039062    9999.80039062    9999.80039062    9999.80039062    9999.80039062    9999.80039062    9999.80039062    9999.80039062    9999.80039062    9999.80039062    9999.80039062    9999.80039062    9999.80039062    9999.80039062
        9999.80039062    9999.80039062    9999.80039062    9999.80039062    9999.80039062    9999.80039062    9999.80039062    9999.80039062    9999.80039062    9999.80039062    9999.80039062    9999.80039062    9999.80039062    9999.80039062    9999.80039062    9999.80039062    9999.80039062    9999.80039062    9999.80039062    9999.80039062
        9999.80039062    9999.80039062    9999.80039062    9999.80039062    9999.80039062    9999.80039062    9999.80039062    9999.80039062    9999.80039062    9999.80039062    9999.80039062    9999.80039062    9999.80039062    9999.80039062    9999.80039062    9999.80039062    9999.80039062    9999.80039062    9999.80039062    9999.80039062
        9999.80039062    9999.80039062    9999.80039062    9999.80039062    9999.80039062    9999.80039062    9999.80039062    9999.80039062    9999.80039062    9999.80039062    9999.80039062    9999.80039062    9999.80039062    9999.80039062    9999.80039062    9999.80039062    9999.80039062    9999.80039062    9999.80039062    9999.80039062
        9999.80039062    9999.80039062    9999.80039062    9999.80039062    9999.80039062    9999.80039062    9999.80039062    9999.80039062    9999.80039062    9999.80039062    9999.80039062    9999.80039062    9999.80039062    9999.80039062    9999.80039062     -16.90000114     -22.90000114     -28.70000038     -61.09999847     -63.00000000
         -64.00000000     -64.79999924     -65.50000000     -66.20000076     -67.09999847     -68.00000000     -68.90000153     -69.70000076     -70.79999924     -71.79999924     -72.90000153     -73.79999924     -74.90000153     -76.29999924     -78.29999924     -79.00000000     -80.20000076     -81.79999924     -83.50000000     -85.09999847
         -86.40000153     -88.00000000     -89.59999847     -91.59999847     -92.90000153     -94.40000153     -96.30000305     -98.09999847     -99.59999847    -101.19999695    -102.69999695    -103.90000153    -105.40000153    -106.40000153    -107.69999695    -108.59999847    -109.50000000    -110.19999695    -111.09999847    -111.80000305
        -112.80000305    -113.59999847    -114.40000153
        9999.80039062    9999.80039062    9999.80039062    9999.80039062    9999.80039062    9999.80039062    9999.80039062    9999.80039062    9999.80039062    9999.80039062    9999.80039062    9999.80039062    9999.80039062    9999.80039062    9999.80039062    9999.80039062    9999.80039062    9999.80039062    9999.80039062    9999.80039062
        9999.80039062    9999.80039062    9999.80039062    9999.80039062    9999.80039062    9999.80039062    9999.80039062    9999.80039062    9999.80039062    9999.80039062    9999.80039062    9999.80039062    9999.80039062    9999.80039062    9999.80039062    9999.80039062    9999.80039062    9999.80039062    9999.80039062    9999.80039062
        9999.80039062    9999.80039062    9999.80039062    9999.80039062    9999.80039062    9999.80039062    9999.80039062    9999.80039062    9999.80039062    9999.80039062    9999.80039062    9999.80039062    9999.80039062    9999.80039062    9999.80039062    9999.80039062    9999.80039062    9999.80039062    9999.80039062    9999.80039062
        9999.80039062    9999.80039062    9999.80039062    9999.80039062    9999.80039062    9999.80039062    9999.80039062    9999.80039062    9999.80039062    9999.80039062    9999.80039062    9999.80039062    9999.80039062    9999.80039062    9999.80039062    9999.80039062    9999.80039062    9999.80039062    9999.80039062    9999.80039062
        9999.80039062    9999.80039062    9999.80039062    9999.80039062    9999.80039062    9999.80039062    9999.80039062    9999.80039062    9999.80039062    9999.80039062    9999.80039062    9999.80039062    9999.80039062    9999.80039062    9999.80039062    9999.80039062    9999.80039062    9999.80039062    9999.80039062    9999.80039062
        9999.80039062    9999.80039062    9999.80039062    9999.80039062    9999.80039062    9999.80039062    9999.80039062    9999.80039062    9999.80039062    9999.80039062    9999.80039062    9999.80039062    9999.80039062    9999.80039062    9999.80039062    9999.80039062    9999.80039062    9999.80039062    9999.80039062    9999.80039062
        9999.80039062    9999.80039062    9999.80039062    9999.80039062    9999.80039062    9999.80039062    9999.80039062    9999.80039062    9999.80039062    9999.80039062    9999.80039062    9999.80039062    9999.80039062     -11.90000019     -12.70000038     -15.90000114     -22.90000114     -28.90000114     -61.20000076     -63.29999924
         -64.20000076     -65.00000000     -65.70000076     -66.40000153     -67.20000076     -68.09999847     -69.09999847     -69.90000153     -71.00000000     -72.00000000     -73.09999847     -74.00000000     -75.29999924     -76.50000000     -78.50000000     -79.40000153     -80.70000076     -82.29999924     -84.00000000     -85.59999847
         -86.90000153     -88.59999847     -90.20000076     -92.09999847     -93.40000153     -95.00000000     -96.80000305     -98.69999695    -100.00000000    -101.80000305    -103.19999695    -104.50000000    -105.69999695    -106.59999847    -107.90000153    -108.90000153    -109.69999695    -110.40000153    -111.40000153    -112.19999695
        -113.00000000    -113.69999695    -114.50000000
        9999.80039062    9999.80039062    9999.80039062    9999.80039062    9999.80039062    9999.80039062    9999.80039062    9999.80039062    9999.80039062    9999.80039062    9999.80039062    9999.80039062    9999.80039062    9999.80039062    9999.80039062    9999.80039062    9999.80039062    9999.80039062    9999.80039062    9999.80039062
        9999.80039062    9999.80039062    9999.80039062    9999.80039062    9999.80039062    9999.80039062    9999.80039062    9999.80039062    9999.80039062    9999.80039062    9999.80039062    9999.80039062    9999.80039062    9999.80039062    9999.80039062    9999.80039062    9999.80039062    9999.80039062    9999.80039062    9999.80039062
        9999.80039062    9999.80039062    9999.80039062    9999.80039062    9999.80039062    9999.80039062    9999.80039062    9999.80039062    9999.80039062    9999.80039062    9999.80039062    9999.80039062    9999.80039062    9999.80039062    9999.80039062    9999.80039062    9999.80039062    9999.80039062    9999.80039062    9999.80039062
        9999.80039062    9999.80039062    9999.80039062    9999.80039062    9999.80039062    9999.80039062    9999.80039062    9999.80039062    9999.80039062    9999.80039062    9999.80039062    9999.80039062    9999.80039062    9999.80039062    9999.80039062    9999.80039062    9999.80039062    9999.80039062    9999.80039062    9999.80039062
        9999.80039062    9999.80039062    9999.80039062    9999.80039062    9999.80039062    9999.80039062    9999.80039062    9999.80039062    9999.80039062    9999.80039062    9999.80039062    9999.80039062    9999.80039062    9999.80039062    9999.80039062    9999.80039062    9999.80039062    9999.80039062    9999.80039062    9999.80039062
        9999.80039062    9999.80039062    9999.80039062    9999.80039062    9999.80039062    9999.80039062    9999.80039062    9999.80039062    9999.80039062    9999.80039062    9999.80039062    9999.80039062    9999.80039062    9999.80039062    9999.80039062    9999.80039062    9999.80039062    9999.80039062    9999.80039062    9999.80039062
        9999.80039062    9999.80039062    9999.80039062    9999.80039062    9999.80039062    9999.80039062    9999.80039062    9999.80039062    9999.80039062    9999.80039062      -9.20000038      -8.00000057      -9.40000019     -10.10000000     -11.50000057     -16.10000000     -22.80000076     -28.99999962     -61.29999924     -63.50000000
         -64.29999924     -65.29999924     -65.90000153     -66.50000000     -67.40000153     -68.20000076     -69.09999847     -70.00000000     -71.00000000     -72.00000000     -73.20000076     -74.20000076     -75.29999924     -76.70000076     -78.50000000     -79.50000000     -81.00000000     -82.79999924     -84.29999924     -85.79999924
         -87.29999924     -88.90000153     -90.59999847     -92.50000000     -93.80000305     -95.69999695     -97.30000305     -98.90000153    -100.50000000    -102.00000000    -103.69999695    -104.80000305    -105.90000153    -106.90000153    -108.09999847    -109.00000000    -109.90000153    -110.69999695    -111.59999847    -112.50000000
        -113.40000153    -113.90000153    -114.69999695
        9999.80039062    9999.80039062    9999.80039062    9999.80039062    9999.80039062    9999.80039062    9999.80039062    9999.80039062    9999.80039062    9999.80039062    9999.80039062    9999.80039062    9999.80039062    9999.80039062    9999.80039062    9999.80039062    9999.80039062    9999.80039062    9999.80039062    9999.80039062
        9999.80039062    9999.80039062    9999.80039062    9999.80039062    9999.80039062    9999.80039062    9999.80039062    9999.80039062    9999.80039062    9999.80039062    9999.80039062    9999.80039062    9999.80039062    9999.80039062    9999.80039062    9999.80039062    9999.80039062    9999.80039062    9999.80039062    9999.80039062
        9999.80039062    9999.80039062    9999.80039062    9999.80039062    9999.80039062    9999.80039062    9999.80039062    9999.80039062    9999.80039062    9999.80039062    9999.80039062    9999.80039062    9999.80039062    9999.80039062    9999.80039062    9999.80039062    9999.80039062    9999.80039062    9999.80039062    9999.80039062
        9999.80039062    9999.80039062    9999.80039062    9999.80039062    9999.80039062    9999.80039062    9999.80039062    9999.80039062    9999.80039062    9999.80039062    9999.80039062    9999.80039062    9999.80039062    9999.80039062    9999.80039062    9999.80039062    9999.80039062    9999.80039062    9999.80039062    9999.80039062
        9999.80039062    9999.80039062    9999.80039062    9999.80039062    9999.80039062    9999.80039062    9999.80039062    9999.80039062    9999.80039062    9999.80039062    9999.80039062    9999.80039062    9999.80039062    9999.80039062    9999.80039062    9999.80039062    9999.80039062    9999.80039062    9999.80039062    9999.80039062
        9999.80039062    9999.80039062    9999.80039062    9999.80039062    9999.80039062    9999.80039062    9999.80039062    9999.80039062    9999.80039062    9999.80039062    9999.80039062    9999.80039062    9999.80039062    9999.80039062    9999.80039062    9999.80039062    9999.80039062    9999.80039062    9999.80039062    9999.80039062
        9999.80039062    9999.80039062    9999.80039062    9999.80039062    9999.80039062    9999.80039062    9999.80039062      -5.89999971      -6.50000010      -7.00000010      -6.29999981      -7.70000038      -8.00000057      -8.30000076     -12.00000057     -14.70000038     -22.60000000     -29.10000000     -61.40000153     -63.59999847
         -64.40000153     -65.29999924     -66.00000000     -66.70000076     -67.50000000     -68.29999924     -69.29999924     -70.00000000     -71.20000076     -72.00000000     -73.20000076     -74.20000076     -75.29999924     -76.79999924     -78.59999847     -79.70000076     -81.09999847     -83.00000000     -84.20000076     -86.00000000
         -87.40000153     -89.29999924     -91.09999847     -92.70000076     -94.00000000     -95.80000305     -97.50000000     -99.09999847    -100.69999695    -102.19999695    -103.80000305    -104.90000153    -106.00000000    -106.90000153    -108.19999695    -109.09999847    -110.00000000    -110.80000305    -111.80000305    -112.69999695
        -113.59999847    -114.09999847    -114.69999695
        9999.80039062    9999.80039062    9999.80039062    9999.80039062    9999.80039062    9999.80039062    9999.80039062    9999.80039062    9999.80039062    9999.80039062    9999.80039062    9999.80039062    9999.80039062    9999.80039062    9999.80039062    9999.80039062    9999.80039062    9999.80039062    9999.80039062    9999.80039062
        9999.80039062    9999.80039062    9999.80039062    9999.80039062    9999.80039062    9999.80039062    9999.80039062    9999.80039062    9999.80039062    9999.80039062    9999.80039062    9999.80039062    9999.80039062    9999.80039062    9999.80039062    9999.80039062    9999.80039062    9999.80039062    9999.80039062    9999.80039062
        9999.80039062    9999.80039062    9999.80039062    9999.80039062    9999.80039062    9999.80039062    9999.80039062    9999.80039062    9999.80039062    9999.80039062    9999.80039062    9999.80039062    9999.80039062    9999.80039062    9999.80039062    9999.80039062    9999.80039062    9999.80039062    9999.80039062    9999.80039062
        9999.80039062    9999.80039062    9999.80039062    9999.80039062    9999.80039062    9999.80039062    9999.80039062    9999.80039062    9999.80039062    9999.80039062    9999.80039062    9999.80039062    9999.80039062    9999.80039062    9999.80039062    9999.80039062    9999.80039062    9999.80039062    9999.80039062    9999.80039062
        9999.80039062    9999.80039062    9999.80039062    9999.80039062    9999.80039062    9999.80039062    9999.80039062    9999.80039062    9999.80039062    9999.80039062    9999.80039062    9999.80039062    9999.80039062    9999.80039062    9999.80039062    9999.80039062    9999.80039062    9999.80039062    9999.80039062    9999.80039062
        9999.80039062    9999.80039062    9999.80039062    9999.80039062    9999.80039062    9999.80039062    9999.80039062    9999.80039062    9999.80039062    9999.80039062    9999.80039062    9999.80039062    9999.80039062    9999.80039062    9999.80039062    9999.80039062    9999.80039062    9999.80039062    9999.80039062    9999.80039062
        9999.80039062    9999.80039062    9999.80039062    9999.80039062       0.19999995      -2.60000000      -4.60000000      -5.19999990      -3.60000000      -5.10000000      -6.00000010      -4.89999971      -6.39999971      -9.50000057     -11.20000038     -15.10000000     -22.70000038     -59.10000038     -61.59999847     -63.79999924
         -64.70000076     -65.59999847     -66.20000076     -67.00000000     -67.79999924     -68.50000000     -69.50000000     -70.29999924     -71.50000000     -72.29999924     -73.50000000     -74.50000000     -75.50000000     -77.29999924     -78.70000076     -79.90000153     -81.59999847     -83.29999924     -84.90000153     -86.50000000
         -87.90000153     -89.79999924     -91.50000000     -93.09999847     -94.40000153     -96.30000305     -97.90000153     -99.69999695    -101.19999695    -102.50000000    -104.19999695    -105.40000153    -106.40000153    -107.40000153    -108.50000000    -109.40000153    -110.19999695    -111.00000000    -111.90000153    -112.80000305
        -113.80000305    -114.40000153    -115.09999847
        9999.80039062    9999.80039062    9999.80039062    9999.80039062    9999.80039062    9999.80039062    9999.80039062    9999.80039062    9999.80039062    9999.80039062    9999.80039062    9999.80039062    9999.80039062    9999.80039062    9999.80039062    9999.80039062    9999.80039062    9999.80039062    9999.80039062    9999.80039062
        9999.80039062    9999.80039062    9999.80039062    9999.80039062    9999.80039062    9999.80039062    9999.80039062    9999.80039062    9999.80039062    9999.80039062    9999.80039062    9999.80039062    9999.80039062    9999.80039062    9999.80039062    9999.80039062    9999.80039062    9999.80039062    9999.80039062    9999.80039062
        9999.80039062    9999.80039062    9999.80039062    9999.80039062    9999.80039062    9999.80039062    9999.80039062    9999.80039062    9999.80039062    9999.80039062    9999.80039062    9999.80039062    9999.80039062    9999.80039062    9999.80039062    9999.80039062    9999.80039062    9999.80039062    9999.80039062    9999.80039062
        9999.80039062    9999.80039062    9999.80039062    9999.80039062    9999.80039062    9999.80039062    9999.80039062    9999.80039062    9999.80039062    9999.80039062    9999.80039062    9999.80039062    9999.80039062    9999.80039062    9999.80039062    9999.80039062    9999.80039062    9999.80039062    9999.80039062    9999.80039062
        9999.80039062    9999.80039062    9999.80039062    9999.80039062    9999.80039062    9999.80039062    9999.80039062    9999.80039062    9999.80039062    9999.80039062    9999.80039062    9999.80039062    9999.80039062    9999.80039062    9999.80039062    9999.80039062    9999.80039062    9999.80039062    9999.80039062    9999.80039062
        9999.80039062    9999.80039062    9999.80039062    9999.80039062    9999.80039062    9999.80039062    9999.80039062    9999.80039062    9999.80039062    9999.80039062    9999.80039062    9999.80039062    9999.80039062    9999.80039062    9999.80039062    9999.80039062    9999.80039062    9999.80039062    9999.80039062    9999.80039062
        9999.80039062       7.80000010       3.30000010       1.00000000      -1.89999995      -1.89999995      -3.39999971      -2.39999995      -3.29999981      -1.79999981      -1.89999995      -5.19999990      -7.10000000      -8.40000019     -11.40000019     -15.60000000     -22.90000114     -59.20000076     -61.79999924     -63.90000153
         -64.79999924     -65.59999847     -66.29999924     -67.00000000     -67.90000153     -68.70000076     -69.70000076     -70.50000000     -71.59999847     -72.50000000     -73.70000076     -74.70000076     -76.09999847     -78.09999847     -78.79999924     -80.20000076     -81.79999924     -83.50000000     -85.09999847     -86.79999924
         -88.29999924     -90.29999924     -91.79999924     -93.40000153     -94.69999695     -96.69999695     -98.30000305    -100.09999847    -101.59999847    -102.80000305    -104.40000153    -105.59999847    -106.59999847    -107.59999847    -108.69999695    -109.59999847    -110.40000153    -111.09999847    -112.00000000    -113.00000000
        -114.00000000    -114.59999847    -115.40000153
        9999.80039062    9999.80039062    9999.80039062    9999.80039062    9999.80039062    9999.80039062    9999.80039062    9999.80039062    9999.80039062    9999.80039062    9999.80039062    9999.80039062    9999.80039062    9999.80039062    9999.80039062    9999.80039062    9999.80039062    9999.80039062    9999.80039062    9999.80039062
        9999.80039062    9999.80039062    9999.80039062    9999.80039062    9999.80039062    9999.80039062    9999.80039062    9999.80039062    9999.80039062    9999.80039062    9999.80039062    9999.80039062    9999.80039062    9999.80039062    9999.80039062    9999.80039062    9999.80039062    9999.80039062    9999.80039062    9999.80039062
        9999.80039062    9999.80039062    9999.80039062    9999.80039062    9999.80039062    9999.80039062    9999.80039062    9999.80039062    9999.80039062    9999.80039062    9999.80039062    9999.80039062    9999.80039062    9999.80039062    9999.80039062    9999.80039062    9999.80039062    9999.80039062    9999.80039062    9999.80039062
        9999.80039062    9999.80039062    9999.80039062    9999.80039062    9999.80039062    9999.80039062    9999.80039062    9999.80039062    9999.80039062    9999.80039062    9999.80039062    9999.80039062    9999.80039062    9999.80039062    9999.80039062    9999.80039062    9999.80039062    9999.80039062    9999.80039062    9999.80039062