BEGIN options
END options

BEGIN dimensions
  MAXBOUND  30
END dimensions

BEGIN period  1
  1 1 30      23.44673295
  1 2 30      23.44673295
  1 3 30      23.44673295
  1 4 30      23.44673295
  1 5 30      23.44673295
  1 6 30      23.44673295
  1 7 30      23.44673295
  1 8 30      23.44673295
  1 9 30      23.44673295
  1 10 30      23.44673295
  1 11 30      23.44673295
  1 12 30      23.44673295
  1 13 30      23.44673295
  1 14 30      23.44673295
  1 15 30      23.44673295
  1 16 30      23.44673295
  1 17 30      23.44673295
  1 18 30      23.44673295
  1 19 30      23.44673295
  1 20 30      23.44673295
  1 21 30      23.44673295
  1 22 30      23.44673295
  1 23 30      23.44673295
  1 24 30      23.44673295
  1 25 30      23.44673295
  1 26 30      23.44673295
  1 27 30      23.44673295
  1 28 30      23.44673295
  1 29 30      23.44673295
  1 30 30      23.44673295
END period  1

BEGIN period  2
  1 1 30      23.87940546
  1 2 30      23.87940546
  1 3 30      23.87940546
  1 4 30      23.87940546
  1 5 30      23.87940546
  1 6 30      23.87940546
  1 7 30      23.87940546
  1 8 30      23.87940546
  1 9 30      23.87940546
  1 10 30      23.87940546
  1 11 30      23.87940546
  1 12 30      23.87940546
  1 13 30      23.87940546
  1 14 30      23.87940546
  1 15 30      23.87940546
  1 16 30      23.87940546
  1 17 30      23.87940546
  1 18 30      23.87940546
  1 19 30      23.87940546
  1 20 30      23.87940546
  1 21 30      23.87940546
  1 22 30      23.87940546
  1 23 30      23.87940546
  1 24 30      23.87940546
  1 25 30      23.87940546
  1 26 30      23.87940546
  1 27 30      23.87940546
  1 28 30      23.87940546
  1 29 30      23.87940546
  1 30 30      23.87940546
END period  2

BEGIN period  3
  1 1 30      23.88508948
  1 2 30      23.88508948
  1 3 30      23.88508948
  1 4 30      23.88508948
  1 5 30      23.88508948
  1 6 30      23.88508948
  1 7 30      23.88508948
  1 8 30      23.88508948
  1 9 30      23.88508948
  1 10 30      23.88508948
  1 11 30      23.88508948
  1 12 30      23.88508948
  1 13 30      23.88508948
  1 14 30      23.88508948
  1 15 30      23.88508948
  1 16 30      23.88508948
  1 17 30      23.88508948
  1 18 30      23.88508948
  1 19 30      23.88508948
  1 20 30      23.88508948
  1 21 30      23.88508948
  1 22 30      23.88508948
  1 23 30      23.88508948
  1 24 30      23.88508948
  1 25 30      23.88508948
  1 26 30      23.88508948
  1 27 30      23.88508948
  1 28 30      23.88508948
  1 29 30      23.88508948
  1 30 30      23.88508948
END period  3

BEGIN period  4
  1 1 30      24.27095352
  1 2 30      24.27095352
  1 3 30      24.27095352
  1 4 30      24.27095352
  1 5 30      24.27095352
  1 6 30      24.27095352
  1 7 30      24.27095352
  1 8 30      24.27095352
  1 9 30      24.27095352
  1 10 30      24.27095352
  1 11 30      24.27095352
  1 12 30      24.27095352
  1 13 30      24.27095352
  1 14 30      24.27095352
  1 15 30      24.27095352
  1 16 30      24.27095352
  1 17 30      24.27095352
  1 18 30      24.27095352
  1 19 30      24.27095352
  1 20 30      24.27095352
  1 21 30      24.27095352
  1 22 30      24.27095352
  1 23 30      24.27095352
  1 24 30      24.27095352
  1 25 30      24.27095352
  1 26 30      24.27095352
  1 27 30      24.27095352
  1 28 30      24.27095352
  1 29 30      24.27095352
  1 30 30      24.27095352
END period  4

BEGIN period  5
  1 1 30      24.90668781
  1 2 30      24.90668781
  1 3 30      24.90668781
  1 4 30      24.90668781
  1 5 30      24.90668781
  1 6 30      24.90668781
  1 7 30      24.90668781
  1 8 30      24.90668781
  1 9 30      24.90668781
  1 10 30      24.90668781
  1 11 30      24.90668781
  1 12 30      24.90668781
  1 13 30      24.90668781
  1 14 30      24.90668781
  1 15 30      24.90668781
  1 16 30      24.90668781
  1 17 30      24.90668781
  1 18 30      24.90668781
  1 19 30      24.90668781
  1 20 30      24.90668781
  1 21 30      24.90668781
  1 22 30      24.90668781
  1 23 30      24.90668781
  1 24 30      24.90668781
  1 25 30      24.90668781
  1 26 30      24.90668781
  1 27 30      24.90668781
  1 28 30      24.90668781
  1 29 30      24.90668781
  1 30 30      24.90668781
END period  5

BEGIN period  6
  1 1 30      25.73517156
  1 2 30      25.73517156
  1 3 30      25.73517156
  1 4 30      25.73517156
  1 5 30      25.73517156
  1 6 30      25.73517156
  1 7 30      25.73517156
  1 8 30      25.73517156
  1 9 30      25.73517156
  1 10 30      25.73517156
  1 11 30      25.73517156
  1 12 30      25.73517156
  1 13 30      25.73517156
  1 14 30      25.73517156
  1 15 30      25.73517156
  1 16 30      25.73517156
  1 17 30      25.73517156
  1 18 30      25.73517156
  1 19 30      25.73517156
  1 20 30      25.73517156
  1 21 30      25.73517156
  1 22 30      25.73517156
  1 23 30      25.73517156
  1 24 30      25.73517156
  1 25 30      25.73517156
  1 26 30      25.73517156
  1 27 30      25.73517156
  1 28 30      25.73517156
  1 29 30      25.73517156
  1 30 30      25.73517156
END period  6

BEGIN period  7
  1 1 30      26.47736411
  1 2 30      26.47736411
  1 3 30      26.47736411
  1 4 30      26.47736411
  1 5 30      26.47736411
  1 6 30      26.47736411
  1 7 30      26.47736411
  1 8 30      26.47736411
  1 9 30      26.47736411
  1 10 30      26.47736411
  1 11 30      26.47736411
  1 12 30      26.47736411
  1 13 30      26.47736411
  1 14 30      26.47736411
  1 15 30      26.47736411
  1 16 30      26.47736411
  1 17 30      26.47736411
  1 18 30      26.47736411
  1 19 30      26.47736411
  1 20 30      26.47736411
  1 21 30      26.47736411
  1 22 30      26.47736411
  1 23 30      26.47736411
  1 24 30      26.47736411
  1 25 30      26.47736411
  1 26 30      26.47736411
  1 27 30      26.47736411
  1 28 30      26.47736411
  1 29 30      26.47736411
  1 30 30      26.47736411
END period  7

BEGIN period  8
  1 1 30      25.61567034
  1 2 30      25.61567034
  1 3 30      25.61567034
  1 4 30      25.61567034
  1 5 30      25.61567034
  1 6 30      25.61567034
  1 7 30      25.61567034
  1 8 30      25.61567034
  1 9 30      25.61567034
  1 10 30      25.61567034
  1 11 30      25.61567034
  1 12 30      25.61567034
  1 13 30      25.61567034
  1 14 30      25.61567034
  1 15 30      25.61567034
  1 16 30      25.61567034
  1 17 30      25.61567034
  1 18 30      25.61567034
  1 19 30      25.61567034
  1 20 30      25.61567034
  1 21 30      25.61567034
  1 22 30      25.61567034
  1 23 30      25.61567034
  1 24 30      25.61567034
  1 25 30      25.61567034
  1 26 30      25.61567034
  1 27 30      25.61567034
  1 28 30      25.61567034
  1 29 30      25.61567034
  1 30 30      25.61567034
END period  8

BEGIN period  9
  1 1 30      25.05503259
  1 2 30      25.05503259
  1 3 30      25.05503259
  1 4 30      25.05503259
  1 5 30      25.05503259
  1 6 30      25.05503259
  1 7 30      25.05503259
  1 8 30      25.05503259
  1 9 30      25.05503259
  1 10 30      25.05503259
  1 11 30      25.05503259
  1 12 30      25.05503259
  1 13 30      25.05503259
  1 14 30      25.05503259
  1 15 30      25.05503259
  1 16 30      25.05503259
  1 17 30      25.05503259
  1 18 30      25.05503259
  1 19 30      25.05503259
  1 20 30      25.05503259
  1 21 30      25.05503259
  1 22 30      25.05503259
  1 23 30      25.05503259
  1 24 30      25.05503259
  1 25 30      25.05503259
  1 26 30      25.05503259
  1 27 30      25.05503259
  1 28 30      25.05503259
  1 29 30      25.05503259
  1 30 30      25.05503259
END period  9

BEGIN period  10
  1 1 30      25.02420933
  1 2 30      25.02420933
  1 3 30      25.02420933
  1 4 30      25.02420933
  1 5 30      25.02420933
  1 6 30      25.02420933
  1 7 30      25.02420933
  1 8 30      25.02420933
  1 9 30      25.02420933
  1 10 30      25.02420933
  1 11 30      25.02420933
  1 12 30      25.02420933
  1 13 30      25.02420933
  1 14 30      25.02420933
  1 15 30      25.02420933
  1 16 30      25.02420933
  1 17 30      25.02420933
  1 18 30      25.02420933
  1 19 30      25.02420933
  1 20 30      25.02420933
  1 21 30      25.02420933
  1 22 30      25.02420933
  1 23 30      25.02420933
  1 24 30      25.02420933
  1 25 30      25.02420933
  1 26 30      25.02420933
  1 27 30      25.02420933
  1 28 30      25.02420933
  1 29 30      25.02420933
  1 30 30      25.02420933
END period  10

BEGIN period  11
  1 1 30      25.01076023
  1 2 30      25.01076023
  1 3 30      25.01076023
  1 4 30      25.01076023
  1 5 30      25.01076023
  1 6 30      25.01076023
  1 7 30      25.01076023
  1 8 30      25.01076023
  1 9 30      25.01076023
  1 10 30      25.01076023
  1 11 30      25.01076023
  1 12 30      25.01076023
  1 13 30      25.01076023
  1 14 30      25.01076023
  1 15 30      25.01076023
  1 16 30      25.01076023
  1 17 30      25.01076023
  1 18 30      25.01076023
  1 19 30      25.01076023
  1 20 30      25.01076023
  1 21 30      25.01076023
  1 22 30      25.01076023
  1 23 30      25.01076023
  1 24 30      25.01076023
  1 25 30      25.01076023
  1 26 30      25.01076023
  1 27 30      25.01076023
  1 28 30      25.01076023
  1 29 30      25.01076023
  1 30 30      25.01076023
END period  11

BEGIN period  12
  1 1 30      24.52038205
  1 2 30      24.52038205
  1 3 30      24.52038205
  1 4 30      24.52038205
  1 5 30      24.52038205
  1 6 30      24.52038205
  1 7 30      24.52038205
  1 8 30      24.52038205
  1 9 30      24.52038205
  1 10 30      24.52038205
  1 11 30      24.52038205
  1 12 30      24.52038205
  1 13 30      24.52038205
  1 14 30      24.52038205
  1 15 30      24.52038205
  1 16 30      24.52038205
  1 17 30      24.52038205
  1 18 30      24.52038205
  1 19 30      24.52038205
  1 20 30      24.52038205
  1 21 30      24.52038205
  1 22 30      24.52038205
  1 23 30      24.52038205
  1 24 30      24.52038205
  1 25 30      24.52038205
  1 26 30      24.52038205
  1 27 30      24.52038205
  1 28 30      24.52038205
  1 29 30      24.52038205
  1 30 30      24.52038205
END period  12

BEGIN period  13
  1 1 30      23.44673295
  1 2 30      23.44673295
  1 3 30      23.44673295
  1 4 30      23.44673295
  1 5 30      23.44673295
  1 6 30      23.44673295
  1 7 30      23.44673295
  1 8 30      23.44673295
  1 9 30      23.44673295
  1 10 30      23.44673295
  1 11 30      23.44673295
  1 12 30      23.44673295
  1 13 30      23.44673295
  1 14 30      23.44673295
  1 15 30      23.44673295
  1 16 30      23.44673295
  1 17 30      23.44673295
  1 18 30      23.44673295
  1 19 30      23.44673295
  1 20 30      23.44673295
  1 21 30      23.44673295
  1 22 30      23.44673295
  1 23 30      23.44673295
  1 24 30      23.44673295
  1 25 30      23.44673295
  1 26 30      23.44673295
  1 27 30      23.44673295
  1 28 30      23.44673295
  1 29 30      23.44673295
  1 30 30      23.44673295
END period  13

BEGIN period  14
  1 1 30      23.87940546
  1 2 30      23.87940546
  1 3 30      23.87940546
  1 4 30      23.87940546
  1 5 30      23.87940546
  1 6 30      23.87940546
  1 7 30      23.87940546
  1 8 30      23.87940546
  1 9 30      23.87940546
  1 10 30      23.87940546
  1 11 30      23.87940546
  1 12 30      23.87940546
  1 13 30      23.87940546
  1 14 30      23.87940546
  1 15 30      23.87940546
  1 16 30      23.87940546
  1 17 30      23.87940546
  1 18 30      23.87940546
  1 19 30      23.87940546
  1 20 30      23.87940546
  1 21 30      23.87940546
  1 22 30      23.87940546
  1 23 30      23.87940546
  1 24 30      23.87940546
  1 25 30      23.87940546
  1 26 30      23.87940546
  1 27 30      23.87940546
  1 28 30      23.87940546
  1 29 30      23.87940546
  1 30 30      23.87940546
END period  14

BEGIN period  15
  1 1 30      23.88508948
  1 2 30      23.88508948
  1 3 30      23.88508948
  1 4 30      23.88508948
  1 5 30      23.88508948
  1 6 30      23.88508948
  1 7 30      23.88508948
  1 8 30      23.88508948
  1 9 30      23.88508948
  1 10 30      23.88508948
  1 11 30      23.88508948
  1 12 30      23.88508948
  1 13 30      23.88508948
  1 14 30      23.88508948
  1 15 30      23.88508948
  1 16 30      23.88508948
  1 17 30      23.88508948
  1 18 30      23.88508948
  1 19 30      23.88508948
  1 20 30      23.88508948
  1 21 30      23.88508948
  1 22 30      23.88508948
  1 23 30      23.88508948
  1 24 30      23.88508948
  1 25 30      23.88508948
  1 26 30      23.88508948
  1 27 30      23.88508948
  1 28 30      23.88508948
  1 29 30      23.88508948
  1 30 30      23.88508948
END period  15

BEGIN period  16
  1 1 30      24.27095352
  1 2 30      24.27095352
  1 3 30      24.27095352
  1 4 30      24.27095352
  1 5 30      24.27095352
  1 6 30      24.27095352
  1 7 30      24.27095352
  1 8 30      24.27095352
  1 9 30      24.27095352
  1 10 30      24.27095352
  1 11 30      24.27095352
  1 12 30      24.27095352
  1 13 30      24.27095352
  1 14 30      24.27095352
  1 15 30      24.27095352
  1 16 30      24.27095352
  1 17 30      24.27095352
  1 18 30      24.27095352
  1 19 30      24.27095352
  1 20 30      24.27095352
  1 21 30      24.27095352
  1 22 30      24.27095352
  1 23 30      24.27095352
  1 24 30      24.27095352
  1 25 30      24.27095352
  1 26 30      24.27095352
  1 27 30      24.27095352
  1 28 30      24.27095352
  1 29 30      24.27095352
  1 30 30      24.27095352
END period  16

BEGIN period  17
  1 1 30      24.90668781
  1 2 30      24.90668781
  1 3 30      24.90668781
  1 4 30      24.90668781
  1 5 30      24.90668781
  1 6 30      24.90668781
  1 7 30      24.90668781
  1 8 30      24.90668781
  1 9 30      24.90668781
  1 10 30      24.90668781
  1 11 30      24.90668781
  1 12 30      24.90668781
  1 13 30      24.90668781
  1 14 30      24.90668781
  1 15 30      24.90668781
  1 16 30      24.90668781
  1 17 30      24.90668781
  1 18 30      24.90668781
  1 19 30      24.90668781
  1 20 30      24.90668781
  1 21 30      24.90668781
  1 22 30      24.90668781
  1 23 30      24.90668781
  1 24 30      24.90668781
  1 25 30      24.90668781
  1 26 30      24.90668781
  1 27 30      24.90668781
  1 28 30      24.90668781
  1 29 30      24.90668781
  1 30 30      24.90668781
END period  17

BEGIN period  18
  1 1 30      25.73517156
  1 2 30      25.73517156
  1 3 30      25.73517156
  1 4 30      25.73517156
  1 5 30      25.73517156
  1 6 30      25.73517156
  1 7 30      25.73517156
  1 8 30      25.73517156
  1 9 30      25.73517156
  1 10 30      25.73517156
  1 11 30      25.73517156
  1 12 30      25.73517156
  1 13 30      25.73517156
  1 14 30      25.73517156
  1 15 30      25.73517156
  1 16 30      25.73517156
  1 17 30      25.73517156
  1 18 30      25.73517156
  1 19 30      25.73517156
  1 20 30      25.73517156
  1 21 30      25.73517156
  1 22 30      25.73517156
  1 23 30      25.73517156
  1 24 30      25.73517156
  1 25 30      25.73517156
  1 26 30      25.73517156
  1 27 30      25.73517156
  1 28 30      25.73517156
  1 29 30      25.73517156
  1 30 30      25.73517156
END period  18

BEGIN period  19
  1 1 30      26.47736411
  1 2 30      26.47736411
  1 3 30      26.47736411
  1 4 30      26.47736411
  1 5 30      26.47736411
  1 6 30      26.47736411
  1 7 30      26.47736411
  1 8 30      26.47736411
  1 9 30      26.47736411
  1 10 30      26.47736411
  1 11 30      26.47736411
  1 12 30      26.47736411
  1 13 30      26.47736411
  1 14 30      26.47736411
  1 15 30      26.47736411
  1 16 30      26.47736411
  1 17 30      26.47736411
  1 18 30      26.47736411
  1 19 30      26.47736411
  1 20 30      26.47736411
  1 21 30      26.47736411
  1 22 30      26.47736411
  1 23 30      26.47736411
  1 24 30      26.47736411
  1 25 30      26.47736411
  1 26 30      26.47736411
  1 27 30      26.47736411
  1 28 30      26.47736411
  1 29 30      26.47736411
  1 30 30      26.47736411
END period  19

BEGIN period  20
  1 1 30      25.61567034
  1 2 30      25.61567034
  1 3 30      25.61567034
  1 4 30      25.61567034
  1 5 30      25.61567034
  1 6 30      25.61567034
  1 7 30      25.61567034
  1 8 30      25.61567034
  1 9 30      25.61567034
  1 10 30      25.61567034
  1 11 30      25.61567034
  1 12 30      25.61567034
  1 13 30      25.61567034
  1 14 30      25.61567034
  1 15 30      25.61567034
  1 16 30      25.61567034
  1 17 30      25.61567034
  1 18 30      25.61567034
  1 19 30      25.61567034
  1 20 30      25.61567034
  1 21 30      25.61567034
  1 22 30      25.61567034
  1 23 30      25.61567034
  1 24 30      25.61567034
  1 25 30      25.61567034
  1 26 30      25.61567034
  1 27 30      25.61567034
  1 28 30      25.61567034
  1 29 30      25.61567034
  1 30 30      25.61567034
END period  20

BEGIN period  21
  1 1 30      25.05503259
  1 2 30      25.05503259
  1 3 30      25.05503259
  1 4 30      25.05503259
  1 5 30      25.05503259
  1 6 30      25.05503259
  1 7 30      25.05503259
  1 8 30      25.05503259
  1 9 30      25.05503259
  1 10 30      25.05503259
  1 11 30      25.05503259
  1 12 30      25.05503259
  1 13 30      25.05503259
  1 14 30      25.05503259
  1 15 30      25.05503259
  1 16 30      25.05503259
  1 17 30      25.05503259
  1 18 30      25.05503259
  1 19 30      25.05503259
  1 20 30      25.05503259
  1 21 30      25.05503259
  1 22 30      25.05503259
  1 23 30      25.05503259
  1 24 30      25.05503259
  1 25 30      25.05503259
  1 26 30      25.05503259
  1 27 30      25.05503259
  1 28 30      25.05503259
  1 29 30      25.05503259
  1 30 30      25.05503259
END period  21

BEGIN period  22
  1 1 30      25.02420933
  1 2 30      25.02420933
  1 3 30      25.02420933
  1 4 30      25.02420933
  1 5 30      25.02420933
  1 6 30      25.02420933
  1 7 30      25.02420933
  1 8 30      25.02420933
  1 9 30      25.02420933
  1 10 30      25.02420933
  1 11 30      25.02420933
  1 12 30      25.02420933
  1 13 30      25.02420933
  1 14 30      25.02420933
  1 15 30      25.02420933
  1 16 30      25.02420933
  1 17 30      25.02420933
  1 18 30      25.02420933
  1 19 30      25.02420933
  1 20 30      25.02420933
  1 21 30      25.02420933
  1 22 30      25.02420933
  1 23 30      25.02420933
  1 24 30      25.02420933
  1 25 30      25.02420933
  1 26 30      25.02420933
  1 27 30      25.02420933
  1 28 30      25.02420933
  1 29 30      25.02420933
  1 30 30      25.02420933
END period  22

BEGIN period  23
  1 1 30      25.01076023
  1 2 30      25.01076023
  1 3 30      25.01076023
  1 4 30      25.01076023
  1 5 30      25.01076023
  1 6 30      25.01076023
  1 7 30      25.01076023
  1 8 30      25.01076023
  1 9 30      25.01076023
  1 10 30      25.01076023
  1 11 30      25.01076023
  1 12 30      25.01076023
  1 13 30      25.01076023
  1 14 30      25.01076023
  1 15 30      25.01076023
  1 16 30      25.01076023
  1 17 30      25.01076023
  1 18 30      25.01076023
  1 19 30      25.01076023
  1 20 30      25.01076023
  1 21 30      25.01076023
  1 22 30      25.01076023
  1 23 30      25.01076023
  1 24 30      25.01076023
  1 25 30      25.01076023
  1 26 30      25.01076023
  1 27 30      25.01076023
  1 28 30      25.01076023
  1 29 30      25.01076023
  1 30 30      25.01076023
END period  23

BEGIN period  24
  1 1 30      24.52038205
  1 2 30      24.52038205
  1 3 30      24.52038205
  1 4 30      24.52038205
  1 5 30      24.52038205
  1 6 30      24.52038205
  1 7 30      24.52038205
  1 8 30      24.52038205
  1 9 30      24.52038205
  1 10 30      24.52038205
  1 11 30      24.52038205
  1 12 30      24.52038205
  1 13 30      24.52038205
  1 14 30      24.52038205
  1 15 30      24.52038205
  1 16 30      24.52038205
  1 17 30      24.52038205
  1 18 30      24.52038205
  1 19 30      24.52038205
  1 20 30      24.52038205
  1 21 30      24.52038205
  1 22 30      24.52038205
  1 23 30      24.52038205
  1 24 30      24.52038205
  1 25 30      24.52038205
  1 26 30      24.52038205
  1 27 30      24.52038205
  1 28 30      24.52038205
  1 29 30      24.52038205
  1 30 30      24.52038205
END period  24

BEGIN period  25
  1 1 30      23.44673295
  1 2 30      23.44673295
  1 3 30      23.44673295
  1 4 30      23.44673295
  1 5 30      23.44673295
  1 6 30      23.44673295
  1 7 30      23.44673295
  1 8 30      23.44673295
  1 9 30      23.44673295
  1 10 30      23.44673295
  1 11 30      23.44673295
  1 12 30      23.44673295
  1 13 30      23.44673295
  1 14 30      23.44673295
  1 15 30      23.44673295
  1 16 30      23.44673295
  1 17 30      23.44673295
  1 18 30      23.44673295
  1 19 30      23.44673295
  1 20 30      23.44673295
  1 21 30      23.44673295
  1 22 30      23.44673295
  1 23 30      23.44673295
  1 24 30      23.44673295
  1 25 30      23.44673295
  1 26 30      23.44673295
  1 27 30      23.44673295
  1 28 30      23.44673295
  1 29 30      23.44673295
  1 30 30      23.44673295
END period  25

BEGIN period  26
  1 1 30      23.87940546
  1 2 30      23.87940546
  1 3 30      23.87940546
  1 4 30      23.87940546
  1 5 30      23.87940546
  1 6 30      23.87940546
  1 7 30      23.87940546
  1 8 30      23.87940546
  1 9 30      23.87940546
  1 10 30      23.87940546
  1 11 30      23.87940546
  1 12 30      23.87940546
  1 13 30      23.87940546
  1 14 30      23.87940546
  1 15 30      23.87940546
  1 16 30      23.87940546
  1 17 30      23.87940546
  1 18 30      23.87940546
  1 19 30      23.87940546
  1 20 30      23.87940546
  1 21 30      23.87940546
  1 22 30      23.87940546
  1 23 30      23.87940546
  1 24 30      23.87940546
  1 25 30      23.87940546
  1 26 30      23.87940546
  1 27 30      23.87940546
  1 28 30      23.87940546
  1 29 30      23.87940546
  1 30 30      23.87940546
END period  26

BEGIN period  27
  1 1 30      23.88508948
  1 2 30      23.88508948
  1 3 30      23.88508948
  1 4 30      23.88508948
  1 5 30      23.88508948
  1 6 30      23.88508948
  1 7 30      23.88508948
  1 8 30      23.88508948
  1 9 30      23.88508948
  1 10 30      23.88508948
  1 11 30      23.88508948
  1 12 30      23.88508948
  1 13 30      23.88508948
  1 14 30      23.88508948
  1 15 30      23.88508948
  1 16 30      23.88508948
  1 17 30      23.88508948
  1 18 30      23.88508948
  1 19 30      23.88508948
  1 20 30      23.88508948
  1 21 30      23.88508948
  1 22 30      23.88508948
  1 23 30      23.88508948
  1 24 30      23.88508948
  1 25 30      23.88508948
  1 26 30      23.88508948
  1 27 30      23.88508948
  1 28 30      23.88508948
  1 29 30      23.88508948
  1 30 30      23.88508948
END period  27

BEGIN period  28
  1 1 30      24.27095352
  1 2 30      24.27095352
  1 3 30      24.27095352
  1 4 30      24.27095352
  1 5 30      24.27095352
  1 6 30      24.27095352
  1 7 30      24.27095352
  1 8 30      24.27095352
  1 9 30      24.27095352
  1 10 30      24.27095352
  1 11 30      24.27095352
  1 12 30      24.27095352
  1 13 30      24.27095352
  1 14 30      24.27095352
  1 15 30      24.27095352
  1 16 30      24.27095352
  1 17 30      24.27095352
  1 18 30      24.27095352
  1 19 30      24.27095352
  1 20 30      24.27095352
  1 21 30      24.27095352
  1 22 30      24.27095352
  1 23 30      24.27095352
  1 24 30      24.27095352
  1 25 30      24.27095352
  1 26 30      24.27095352
  1 27 30      24.27095352
  1 28 30      24.27095352
  1 29 30      24.27095352
  1 30 30      24.27095352
END period  28

BEGIN period  29
  1 1 30      24.90668781
  1 2 30      24.90668781
  1 3 30      24.90668781
  1 4 30      24.90668781
  1 5 30      24.90668781
  1 6 30      24.90668781
  1 7 30      24.90668781
  1 8 30      24.90668781
  1 9 30      24.90668781
  1 10 30      24.90668781
  1 11 30      24.90668781
  1 12 30      24.90668781
  1 13 30      24.90668781
  1 14 30      24.90668781
  1 15 30      24.90668781
  1 16 30      24.90668781
  1 17 30      24.90668781
  1 18 30      24.90668781
  1 19 30      24.90668781
  1 20 30      24.90668781
  1 21 30      24.90668781
  1 22 30      24.90668781
  1 23 30      24.90668781
  1 24 30      24.90668781
  1 25 30      24.90668781
  1 26 30      24.90668781
  1 27 30      24.90668781
  1 28 30      24.90668781
  1 29 30      24.90668781
  1 30 30      24.90668781
END period  29

BEGIN period  30
  1 1 30      25.73517156
  1 2 30      25.73517156
  1 3 30      25.73517156
  1 4 30      25.73517156
  1 5 30      25.73517156
  1 6 30      25.73517156
  1 7 30      25.73517156
  1 8 30      25.73517156
  1 9 30      25.73517156
  1 10 30      25.73517156
  1 11 30      25.73517156
  1 12 30      25.73517156
  1 13 30      25.73517156
  1 14 30      25.73517156
  1 15 30      25.73517156
  1 16 30      25.73517156
  1 17 30      25.73517156
  1 18 30      25.73517156
  1 19 30      25.73517156
  1 20 30      25.73517156
  1 21 30      25.73517156
  1 22 30      25.73517156
  1 23 30      25.73517156
  1 24 30      25.73517156
  1 25 30      25.73517156
  1 26 30      25.73517156
  1 27 30      25.73517156
  1 28 30      25.73517156
  1 29 30      25.73517156
  1 30 30      25.73517156
END period  30

BEGIN period  31
  1 1 30      26.47736411
  1 2 30      26.47736411
  1 3 30      26.47736411
  1 4 30      26.47736411
  1 5 30      26.47736411
  1 6 30      26.47736411
  1 7 30      26.47736411
  1 8 30      26.47736411
  1 9 30      26.47736411
  1 10 30      26.47736411
  1 11 30      26.47736411
  1 12 30      26.47736411
  1 13 30      26.47736411
  1 14 30      26.47736411
  1 15 30      26.47736411
  1 16 30      26.47736411
  1 17 30      26.47736411
  1 18 30      26.47736411
  1 19 30      26.47736411
  1 20 30      26.47736411
  1 21 30      26.47736411
  1 22 30      26.47736411
  1 23 30      26.47736411
  1 24 30      26.47736411
  1 25 30      26.47736411
  1 26 30      26.47736411
  1 27 30      26.47736411
  1 28 30      26.47736411
  1 29 30      26.47736411
  1 30 30      26.47736411
END period  31

BEGIN period  32
  1 1 30      25.61567034
  1 2 30      25.61567034
  1 3 30      25.61567034
  1 4 30      25.61567034
  1 5 30      25.61567034
  1 6 30      25.61567034
  1 7 30      25.61567034
  1 8 30      25.61567034
  1 9 30      25.61567034
  1 10 30      25.61567034
  1 11 30      25.61567034
  1 12 30      25.61567034
  1 13 30      25.61567034
  1 14 30      25.61567034
  1 15 30      25.61567034
  1 16 30      25.61567034
  1 17 30      25.61567034
  1 18 30      25.61567034
  1 19 30      25.61567034
  1 20 30      25.61567034
  1 21 30      25.61567034
  1 22 30      25.61567034
  1 23 30      25.61567034
  1 24 30      25.61567034
  1 25 30      25.61567034
  1 26 30      25.61567034
  1 27 30      25.61567034
  1 28 30      25.61567034
  1 29 30      25.61567034
  1 30 30      25.61567034
END period  32

BEGIN period  33
  1 1 30      25.05503259
  1 2 30      25.05503259
  1 3 30      25.05503259
  1 4 30      25.05503259
  1 5 30      25.05503259
  1 6 30      25.05503259
  1 7 30      25.05503259
  1 8 30      25.05503259
  1 9 30      25.05503259
  1 10 30      25.05503259
  1 11 30      25.05503259
  1 12 30      25.05503259
  1 13 30      25.05503259
  1 14 30      25.05503259
  1 15 30      25.05503259
  1 16 30      25.05503259
  1 17 30      25.05503259
  1 18 30      25.05503259
  1 19 30      25.05503259
  1 20 30      25.05503259
  1 21 30      25.05503259
  1 22 30      25.05503259
  1 23 30      25.05503259
  1 24 30      25.05503259
  1 25 30      25.05503259
  1 26 30      25.05503259
  1 27 30      25.05503259
  1 28 30      25.05503259
  1 29 30      25.05503259
  1 30 30      25.05503259
END period  33

BEGIN period  34
  1 1 30      25.02420933
  1 2 30      25.02420933
  1 3 30      25.02420933
  1 4 30      25.02420933
  1 5 30      25.02420933
  1 6 30      25.02420933
  1 7 30      25.02420933
  1 8 30      25.02420933
  1 9 30      25.02420933
  1 10 30      25.02420933
  1 11 30      25.02420933
  1 12 30      25.02420933
  1 13 30      25.02420933
  1 14 30      25.02420933
  1 15 30      25.02420933
  1 16 30      25.02420933
  1 17 30      25.02420933
  1 18 30      25.02420933
  1 19 30      25.02420933
  1 20 30      25.02420933
  1 21 30      25.02420933
  1 22 30      25.02420933
  1 23 30      25.02420933
  1 24 30      25.02420933
  1 25 30      25.02420933
  1 26 30      25.02420933
  1 27 30      25.02420933
  1 28 30      25.02420933
  1 29 30      25.02420933
  1 30 30      25.02420933
END period  34

BEGIN period  35
  1 1 30      25.01076023
  1 2 30      25.01076023
  1 3 30      25.01076023
  1 4 30      25.01076023
  1 5 30      25.01076023
  1 6 30      25.01076023
  1 7 30      25.01076023
  1 8 30      25.01076023
  1 9 30      25.01076023
  1 10 30      25.01076023
  1 11 30      25.01076023
  1 12 30      25.01076023
  1 13 30      25.01076023
  1 14 30      25.01076023
  1 15 30      25.01076023
  1 16 30      25.01076023
  1 17 30      25.01076023
  1 18 30      25.01076023
  1 19 30      25.01076023
  1 20 30      25.01076023
  1 21 30      25.01076023
  1 22 30      25.01076023
  1 23 30      25.01076023
  1 24 30      25.01076023
  1 25 30      25.01076023
  1 26 30      25.01076023
  1 27 30      25.01076023
  1 28 30      25.01076023
  1 29 30      25.01076023
  1 30 30      25.01076023
END period  35

BEGIN period  36
  1 1 30      24.52038205
  1 2 30      24.52038205
  1 3 30      24.52038205
  1 4 30      24.52038205
  1 5 30      24.52038205
  1 6 30      24.52038205
  1 7 30      24.52038205
  1 8 30      24.52038205
  1 9 30      24.52038205
  1 10 30      24.52038205
  1 11 30      24.52038205
  1 12 30      24.52038205
  1 13 30      24.52038205
  1 14 30      24.52038205
  1 15 30      24.52038205
  1 16 30      24.52038205
  1 17 30      24.52038205
  1 18 30      24.52038205
  1 19 30      24.52038205
  1 20 30      24.52038205
  1 21 30      24.52038205
  1 22 30      24.52038205
  1 23 30      24.52038205
  1 24 30      24.52038205
  1 25 30      24.52038205
  1 26 30      24.52038205
  1 27 30      24.52038205