BEGIN options
  SAVE_FLOWS
END options

BEGIN packages
  DIS6  test_trans.dis  dis
  IC6  test_trans.ic  ic
  NPF6  test_trans.npf  npf
  OC6  test_trans.oc  oc
  STO6  test_trans.sto  sto
  RCH6  test_trans.rcha  rcha
  CHD6  test_trans.chd  chd
  OBS6  test_trans.obs  head_obs
END packages

