BEGIN options
  DIGITS  10
  PRINT_INPUT
END options

BEGIN continuous  FILEOUT  head_obs.csv
  h1  HEAD  1 2 28
END continuous  FILEOUT  head_obs.csv

BEGIN continuous  FILEOUT  intercell_flow_obs1.csv
  ICF1_1.0  FLOW-JA-FACE  1 5 6  1 6 6
END continuous  FILEOUT  intercell_flow_obs1.csv

BEGIN continuous  FILEOUT  heads.csv
  h3-13-9  HEAD  1 13 9
END continuous  FILEOUT  heads.csv

