BEGIN options
  BUDGET  FILEOUT  test_trans.cbb
  HEAD  FILEOUT  test_trans.hds
  HEAD  PRINT_FORMAT  COLUMNS  10  WIDTH  15  DIGITS  6  GENERAL
END options

BEGIN period  1
  SAVE  HEAD  ALL
  SAVE  BUDGET  ALL
  PRINT  HEAD  FIRST
  PRINT  HEAD  LAST
  PRINT  BUDGET  LAST
END period  1

