BEGIN options
  TIME_UNITS  days
END options

BEGIN dimensions
  NPER  36
END dimensions

BEGIN perioddata
       1.00000000  1       1.00000000
      30.00000000  10       1.00000000
      30.00000000  10       1.00000000
      30.00000000  10       1.00000000
      30.00000000  10       1.00000000
      30.00000000  10       1.00000000
      30.00000000  10       1.00000000
      30.00000000  10       1.00000000
      30.00000000  10       1.00000000
      30.00000000  10       1.00000000
      30.00000000  10       1.00000000
      30.00000000  10       1.00000000
      30.00000000  10       1.00000000
      30.00000000  10       1.00000000
      30.00000000  10       1.00000000
      30.00000000  10       1.00000000
      30.00000000  10       1.00000000
      30.00000000  10       1.00000000
      30.00000000  10       1.00000000
      30.00000000  10       1.00000000
      30.00000000  10       1.00000000
      30.00000000  10       1.00000000
      30.00000000  10       1.00000000
      30.00000000  10       1.00000000
      30.00000000  10       1.00000000
      30.00000000  10       1.00000000
      30.00000000  10       1.00000000
      30.00000000  10       1.00000000
      30.00000000  10       1.00000000
      30.00000000  10       1.00000000
      30.00000000  10       1.00000000
      30.00000000  10       1.00000000
      30.00000000  10       1.00000000
      30.00000000  10       1.00000000
      30.00000000  10       1.00000000
      30.00000000  10       1.00000000
END perioddata

