BEGIN options
  SAVE_FLOWS
END options

BEGIN dimensions
  MAXBOUND  9495
END dimensions

BEGIN period  1
  2 12 137  3.72557033E-09
  5 13 125  3.72557057E-09
  4 13 126  3.72557057E-09
  4 13 127  3.72557033E-09
  5 14 123  3.72557033E-09
  4 14 124  3.72557057E-09
  4 14 125  3.72557057E-09
  4 14 126  3.72557033E-09
  4 14 127  3.72557033E-09
  4 14 128  3.72557033E-09
  4 14 129  3.72557033E-09
  4 15 124  3.72557057E-09
  4 15 125  3.72557009E-09
  4 15 126  3.72557009E-09
  4 15 127  3.72557009E-09
  4 15 128  3.72557033E-09
  4 15 129  3.72557009E-09
  4 15 130  3.72557009E-09
  4 15 131  3.72557033E-09
  4 15 132  3.72557009E-09
  4 16 124  3.72557033E-09
  4 16 125  3.72557009E-09
  4 16 126  3.72557033E-09
  4 16 127  3.72557033E-09
  4 16 128  3.72557009E-09
  4 16 129  3.72557033E-09
  4 16 130  3.72557033E-09
  4 16 131  3.72557009E-09
  4 16 132  3.72557033E-09
  4 16 133  3.72557009E-09
  4 17 124  3.72557057E-09
  4 17 125  3.72557033E-09
  4 17 126  3.72557033E-09
  4 17 127  3.72556984E-09
  4 17 128  3.72556984E-09
  4 17 129  3.72557009E-09
  4 17 130  3.72557033E-09
  4 17 131  3.72557009E-09
  4 17 132  3.72557033E-09
  4 17 133  3.72557009E-09
  4 17 134  3.72557057E-09
  4 18 124  3.72557009E-09
  4 18 125  3.72557009E-09
  4 18 126  3.72557009E-09
  4 18 127  3.72557009E-09
  4 18 128  3.72557009E-09
  4 18 129  3.72557057E-09
  4 18 130  3.72557009E-09
  4 18 131  3.72557033E-09
  4 18 132  3.72557009E-09
  4 18 133  3.72557009E-09
  4 18 134  3.72557009E-09
  4 19 125  3.72557009E-09
  4 19 126  3.72557033E-09
  4 19 127  3.72557009E-09
  4 19 128  3.72557009E-09
  4 19 129  3.72557033E-09
  4 19 130  3.72557033E-09
  4 19 131  3.72557009E-09
  4 19 132  3.72556960E-09
  4 19 133  3.72556984E-09
  4 19 134  3.72557009E-09
  4 20 125  3.72556984E-09
  4 20 126  3.72556984E-09
  4 20 127  3.72557009E-09
  4 20 128  3.72556984E-09
  4 20 129  3.72557009E-09
  4 20 130  3.72557033E-09
  4 20 131  3.72557033E-09
  4 20 132  3.72557033E-09
  4 20 133  3.72556984E-09
  4 20 134  3.72556984E-09
  4 21 128  3.72556960E-09
  4 21 129  3.72557009E-09
  4 21 130  3.72557009E-09
  4 21 131  3.72557033E-09
  4 21 132  3.72557009E-09
  4 21 133  3.72556984E-09
  4 21 134  3.72556984E-09
  4 22 129  3.72557033E-09
  4 22 130  3.72556960E-09
  4 22 131  3.72557009E-09
  4 22 132  3.72556984E-09
  2 22 133  3.72556960E-09
  2 22 134  3.72557009E-09
  4 23 127  3.72557009E-09
  4 23 128  3.72557009E-09
  4 23 129  3.72556984E-09
  4 23 130  3.72556984E-09
  4 23 131  3.72556984E-09
  2 23 132  3.72556984E-09
  2 23 133  3.72557009E-09
  2 23 134  3.72557009E-09
  4 24 128  3.72557033E-09
  2 24 132  3.72557009E-09
  2 24 133  3.72557009E-09
  2 24 134  3.72556984E-09
  2 25 133  3.72556984E-09
  2 25 134  3.72557009E-09
  2 26 133  3.72557033E-09
  2 27 132  3.72557033E-09
  2 27 133  3.72557009E-09
  2 28 132  3.72557009E-09
  2 28 133  3.72557009E-09
  2 29 133  3.72557033E-09
  2 30 132  3.72557033E-09
  2 30 133  3.72557033E-09
  2 31 132  3.72557033E-09
  2 31 133  3.72557033E-09
  2 32 131  3.72557033E-09
  2 32 132  3.72557033E-09
  2 32 133  3.72557033E-09
  2 33 131  3.72557033E-09
  2 33 132  3.72557033E-09
  2 34 130  3.72557033E-09
  2 34 131  3.72557033E-09
  2 34 132  3.72557033E-09
  2 35 129  3.72557033E-09
  2 35 130  3.72557033E-09
  2 35 131  3.72557033E-09
  2 35 132  3.72557033E-09
  2 36 129  3.72557033E-09
  2 36 130  3.72557033E-09
  2 36 131  3.72557033E-09
  2 36 132  3.72557009E-09
  2 37 116  4.38420292E-09
  2 37 128  3.72557033E-09
  2 37 129  3.72557009E-09
  2 37 130  3.72557033E-09
  2 37 131  3.72557033E-09
  2 37 132  3.72557033E-09
  2 38 115  4.55983867E-09
  2 38 128  3.72557057E-09
  2 38 129  3.72557057E-09
  2 38 130  3.72557057E-09
  2 38 131  3.72557033E-09
  2 38 132  3.72557009E-09
  2 39 113  4.61163417E-09
  2 39 127  3.74349200E-09
  2 39 128  3.74385804E-09
  2 39 129  3.74423109E-09
  2 39 130  3.72671343E-09
  2 39 131  3.72676206E-09
  2 40 111  4.59559492E-09
  2 40 127  3.74427802E-09
  2 40 128  3.74465204E-09
  2 40 129  3.74503356E-09
  2 40 130  3.72790589E-09
  2 40 131  3.72800338E-09
  2 41 108  4.65791761E-09
  2 41 109  4.66697389E-09
  2 41 110  4.70461040E-09
  2 41 127  3.79752242E-09
  2 41 128  3.79899115E-09
  2 41 129  3.80048965E-09
  2 41 130  3.78531577E-09
  2 41 131  3.78785818E-09
  4 42 106  4.86234745E-09
  2 42 107  4.85487628E-09
  2 42 108  4.83762934E-09
  2 42 125  4.02522535E-09
  2 42 128  3.96541603E-09
  2 42 129  3.97031093E-09
  2 42 130  3.96221317E-09
  2 42 131  3.96590738E-09
  4 43 103  5.02786099E-09
  4 43 104  5.03211358E-09
  4 43 105  5.03405625E-09
  4 43 106  5.03791739E-09
  2 43 107  5.04980373E-09
  2 43 108  5.00863703E-09
  2 43 128  4.28324215E-09
  2 43 129  4.29439593E-09
  2 43 130  4.29969122E-09
  2 43 131  4.27616870E-09
  2 44 99  5.18738153E-09
  2 44 101  5.16983508E-09
  2 44 102  5.14669143E-09
  4 44 103  5.12814534E-09
  4 44 104  5.11113452E-09
  4 44 105  5.11913938E-09
  2 44 106  5.09639394E-09
  2 44 107  5.07796930E-09
  2 44 124  4.70501877E-09
  2 44 129  4.47647757E-09
  2 44 130  4.48783311E-09
  2 44 131  4.47553454E-09
  2 45 98  5.24426426E-09
  2 45 99  5.23536185E-09
  2 45 100  5.22921401E-09
  2 45 101  5.20363948E-09
  2 45 102  5.17518214E-09
  2 45 103  5.15338602E-09
  2 45 104  5.13905332E-09
  2 45 105  5.12172413E-09
  2 45 106  5.09976978E-09
  2 45 127  4.69273132E-09
  2 45 129  4.71471228E-09
  2 45 130  4.73794110E-09
  2 45 131  4.74304381E-09
  2 46 97  5.29875337E-09
  2 46 98  5.30030508E-09
  2 46 99  5.27961214E-09
  2 46 100  5.26426239E-09
  2 46 101  5.23347143E-09
  2 46 102  5.20334578E-09
  2 46 103  5.15998335E-09
  2 46 104  5.14622596E-09
  2 46 105  5.12998301E-09
  2 46 106  5.11808458E-09
  2 46 127  5.00329577E-09
  2 46 129  4.98303346E-09
  2 46 130  5.02048465E-09
  2 47 97  5.35371085E-09
  2 47 98  5.31591951E-09
  2 47 99  5.29030578E-09
  2 47 100  5.27015475E-09
  2 47 101  5.24355445E-09
  2 47 102  5.21215819E-09
  2 47 103  5.17837219E-09
  2 47 104  5.17254369E-09
  2 47 105  5.16541460E-09
  2 47 106  5.15730571E-09
  2 47 126  5.28121999E-09
  2 47 127  5.25860131E-09
  2 47 129  5.26627086E-09
  2 47 130  5.25561303E-09
  2 48 96  5.40198777E-09
  2 48 97  5.36477560E-09
  2 48 98  5.32527819E-09
  2 48 99  5.29670328E-09
  2 48 100  5.27342802E-09
  2 48 101  5.24844136E-09
  2 48 102  5.22183961E-09
  2 48 103  5.19345001E-09
  2 48 104  5.18819295E-09
  2 48 105  5.18227253E-09
  2 48 125  5.57175970E-09
  2 48 126  5.47883959E-09
  2 48 127  5.46038737E-09
  2 48 128  5.44149582E-09
  2 48 129  5.46307518E-09
  2 48 130  5.46223618E-09
  2 49 96  5.41198610E-09
  2 49 97  5.37364607E-09
  2 49 98  5.33644842E-09
  2 49 99  5.30800609E-09
  2 49 100  5.28404230E-09
  2 49 101  5.25850938E-09
  2 49 102  5.23355708E-09
  2 49 103  5.20759594E-09
  2 49 104  5.20247436E-09
  2 49 129  5.63551991E-09
  2 49 130  5.64332446E-09
  2 50 95  5.46288986E-09
  2 50 96  5.42351923E-09
  2 50 97  5.38600997E-09
  2 50 98  5.34874700E-09
  2 50 99  5.31916084E-09
  2 50 100  5.29362356E-09
  2 50 101  5.26833546E-09
  2 50 102  5.24403298E-09
  2 50 103  5.21763976E-09
  2 50 104  5.21208513E-09
  2 50 107  5.19769437E-09
  2 50 108  5.19445594E-09
  2 50 129  5.73668294E-09
  2 50 130  5.72465629E-09
  2 51 92  5.56259020E-09
  2 51 93  5.53892349E-09
  2 51 94  5.51445843E-09
  2 51 95  5.47156099E-09
  2 51 96  5.43317935E-09
  2 51 97  5.39577896E-09
  2 51 98  5.35884791E-09
  2 51 99  5.32890612E-09
  2 51 100  5.30292757E-09
  2 51 101  5.27748996E-09
  2 51 102  5.25176350E-09
  2 51 103  5.22435322E-09
  2 51 104  5.21822426E-09
  2 51 105  5.21312203E-09
  2 51 106  5.20823124E-09
  2 51 107  5.20400865E-09
  2 51 108  5.20092361E-09
  2 51 123  5.83725276E-09
  2 51 128  5.77045975E-09
  2 51 129  5.78479825E-09
  2 51 130  5.77388978E-09
  2 52 86  5.42024886E-09
  2 52 87  5.43808804E-09
  2 52 88  5.44849427E-09
  2 52 91  5.47287659E-09
  2 52 92  5.47443169E-09
  2 52 93  5.46573347E-09
  2 52 94  5.45201478E-09
  2 52 95  5.41789250E-09
  2 52 96  5.38624512E-09
  2 52 97  5.35551949E-09
  2 52 98  5.32383341E-09
  2 52 99  5.29811662E-09
  2 52 100  5.27527198E-09
  2 52 101  5.25235864E-09
  2 52 102  5.22738892E-09
  2 52 103  5.20149939E-09
  2 52 104  5.18839520E-09
  2 52 105  5.17371026E-09
  2 52 106  5.16640311E-09
  2 52 107  5.15885936E-09
  2 52 108  5.15106401E-09
  2 52 109  5.14304366E-09
  2 52 123  5.96226828E-09
  2 52 127  5.82468322E-09
  2 52 128  5.81574259E-09
  2 52 129  5.80256630E-09
  2 52 130  5.79275521E-09
  2 53 87  5.35765860E-09
  2 53 88  5.39769938E-09
  2 53 89  5.43298726E-09
  2 53 90  5.43685663E-09
  2 53 91  5.43804643E-09
  2 53 92  5.43971669E-09
  2 53 93  5.41755525E-09
  2 53 94  5.39045029E-09
  2 53 95  5.36451286E-09
  2 53 96  5.33956976E-09
  2 53 97  5.31406925E-09
  2 53 98  5.28650705E-09
  2 53 99  5.26416417E-09
  2 53 100  5.24370396E-09
  2 53 101  5.22249039E-09
  2 53 102  5.19815355E-09
  2 53 103  5.17444911E-09
  2 53 104  5.15485499E-09
  2 53 105  5.13204277E-09
  2 53 106  5.12265699E-09
  2 53 107  5.11235625E-09
  2 53 108  5.10075152E-09
  2 53 109  5.08716202E-09
  2 53 127  5.87339416E-09
  2 53 128  5.86529930E-09
  2 53 129  5.85513403E-09
  2 53 130  5.84627420E-09
  2 54 88  5.35775537E-09
  2 54 89  5.36139153E-09
  2 54 90  5.36466044E-09
  2 54 91  5.36658376E-09
  2 54 92  5.36900544E-09
  2 54 93  5.35204688E-09
  2 54 94  5.33140232E-09
  2 54 95  5.31153725E-09
  2 54 96  5.29177330E-09
  2 54 97  5.27034587E-09
  2 54 98  5.24597274E-09
  2 54 99  5.22620493E-09
  2 54 100  5.20729111E-09
  2 54 101  5.18673510E-09
  2 54 102  5.16493849E-09
  2 54 103  5.14400991E-09
  2 54 104  5.11881665E-09
  2 54 105  5.08965193E-09
  2 54 106  5.07131245E-09
  2 54 107  5.05822616E-09
  2 54 108  5.04298817E-09
  2 54 109  5.02446870E-09
  2 54 126  5.92960288E-09
  2 54 127  5.92223380E-09
  2 54 128  5.91469730E-09
  2 54 129  5.90733403E-09
  2 54 130  5.89908433E-09
  2 55 80  5.18102418E-09
  2 55 82  5.22746682E-09
  2 55 83  5.24168000E-09
  2 55 84  5.24612322E-09
  2 55 85  5.25036032E-09
  2 55 88  5.28626028E-09
  2 55 89  5.29286536E-09
  2 55 90  5.29936302E-09
  2 55 91  5.30367125E-09
  2 55 92  5.30450541E-09
  2 55 93  5.29001885E-09
  2 55 94  5.27399267E-09
  2 55 95  5.25866808E-09
  2 55 96  5.24289205E-09
  2 55 97  5.22461208E-09
  2 55 98  5.20269983E-09
  2 55 99  5.18484227E-09
  2 55 100  5.16700841E-09
  2 55 101  5.14721495E-09
  2 55 102  5.12864468E-09
  2 55 103  5.11100968E-09
  2 55 104  5.08124546E-09
  2 55 105  5.04765397E-09
  2 55 106  5.02307569E-09
  2 55 107  5.00871735E-09
  2 55 108  4.99194652E-09
  2 55 109  4.97159082E-09
  2 55 125  5.92723055E-09
  2 55 126  5.91980776E-09
  2 55 127  5.91221659E-09
  2 55 128  5.90445268E-09
  2 55 129  5.89635734E-09
  2 55 130  5.88784588E-09
  2 56 78  5.15128900E-09
  2 56 79  5.14694545E-09
  2 56 80  5.14543921E-09
  2 56 81  5.14846378E-09
  2 56 82  5.15434985E-09
  2 56 83  5.16553992E-09
  2 56 84  5.17300771E-09
  2 56 85  5.18024421E-09
  2 56 86  5.19052270E-09
  2 56 87  5.20399801E-09
  2 56 88  5.21514840E-09
  2 56 89  5.22424532E-09
  2 56 90  5.23128684E-09
  2 56 91  5.23655696E-09
  2 56 92  5.23869898E-09
  2 56 93  5.22860242E-09
  2 56 94  5.21562984E-09
  2 56 95  5.20348803E-09
  2 56 96  5.19056141E-09
  2 56 97  5.17445733E-09
  2 56 98  5.15412002E-09
  2 56 99  5.13733661E-09
  2 56 100  5.12049272E-09
  2 56 101  5.10421881E-09
  2 56 102  5.08858745E-09
  2 56 103  5.07361172E-09
  2 56 104  5.04442812E-09
  2 56 105  5.00742788E-09
  2 56 106  4.97832654E-09
  2 56 107  4.95739554E-09
  2 56 108  4.93946782E-09
  2 56 109  4.91773217E-09
  2 56 127  5.87946313E-09
  2 56 128  5.90355562E-09
  2 56 129  5.93055897E-09
  2 56 130  5.95926888E-09
  2 57 77  5.08949709E-09
  2 57 78  5.09253956E-09
  2 57 79  5.09505657E-09
  2 57 80  5.09777147E-09
  2 57 81  5.10296224E-09
  2 57 82  5.11118677E-09
  2 57 83  5.12434516E-09
  2 57 84  5.13324709E-09
  2 57 85  5.14191676E-09
  2 57 86  5.15324038E-09
  2 57 87  5.16417352E-09
  2 57 88  5.17305561E-09
  2 57 89  5.18033227E-09
  2 57 90  5.18612496E-09
  2 57 91  5.19056625E-09
  2 57 92  5.19222296E-09
  2 57 93  5.18443003E-09
  2 57 94  5.17293755E-09
  2 57 95  5.16241810E-09
  2 57 96  5.15093385E-09
  2 57 97  5.13577715E-09
  2 57 98  5.11955792E-09
  2 57 99  5.10398172E-09
  2 57 100  5.08798554E-09
  2 57 101  5.07209871E-09
  2 57 102  5.05649590E-09
  2 57 103  5.04124292E-09
  2 57 104  5.00796254E-09
  2 57 105  4.96811676E-09
  2 57 106  4.93547845E-09
  2 57 107  4.90971279E-09
  2 57 108  4.88553127E-09
  2 57 109  4.86260535E-09
  2 57 110  4.84260189E-09
  2 57 125  5.78368539E-09
  2 57 126  5.80250098E-09
  2 57 127  5.82246911E-09
  2 57 128  5.87498216E-09
  2 57 129  5.93267244E-09
  2 57 130  5.99930771E-09
  2 58 75  5.08584981E-09
  2 58 76  5.08658672E-09
  2 58 77  5.08971193E-09
  2 58 78  5.09289132E-09
  2 58 79  5.09569912E-09
  2 58 80  5.09875659E-09
  2 58 81  5.10052507E-09
  2 58 82  5.10523683E-09
  2 58 83  5.11487615E-09
  2 58 84  5.12412936E-09
  2 58 85  5.13318128E-09
  2 58 86  5.14155533E-09
  2 58 87  5.14997243E-09
  2 58 88  5.15655816E-09
  2 58 89  5.16174942E-09
  2 58 90  5.16580556E-09
  2 58 91  5.16877303E-09
  2 58 92  5.17126342E-09
  2 58 93  5.16446625E-09
  2 58 94  5.15380648E-09
  2 58 95  5.14176096E-09
  2 58 96  5.12858806E-09
  2 58 97  5.11434730E-09
  2 58 98  5.09913254E-09
  2 58 99  5.08438615E-09
  2 58 100  5.06899285E-09
  2 58 101  5.05332231E-09
  2 58 102  5.03763531E-09
  2 58 103  5.02202476E-09
  2 58 104  4.98812553E-09
  2 58 105  4.94818540E-09
  2 58 106  4.91137241E-09
  2 58 107  4.88072032E-09
  2 58 108  4.85078966E-09
  2 58 109  4.82071045E-09
  2 58 110  4.79218731E-09
  2 58 127  5.81808201E-09
  2 58 128  5.89397533E-09
  2 58 129  5.98141822E-09
  2 59 74  5.08356554E-09
  2 59 75  5.08614399E-09
  2 59 76  5.08694767E-09
  2 59 77  5.08985127E-09
  2 59 78  5.09302971E-09
  2 59 79  5.09597685E-09
  2 59 80  5.09918432E-09
  2 59 81  5.10130504E-09
  2 59 82  5.10366673E-09
  2 59 83  5.11038697E-09
  2 59 84  5.11668770E-09
  2 59 85  5.12302279E-09
  2 59 86  5.12882467E-09
  2 59 87  5.13496283E-09
  2 59 88  5.13950330E-09
  2 59 89  5.14290334E-09
  2 59 90  5.14535744E-09
  2 59 91  5.14686174E-09
  2 59 92  5.14819427E-09
  2 59 93  5.14187854E-09
  2 59 94  5.13168037E-09
  2 59 95  5.12040563E-09
  2 59 96  5.10806689E-09
  2 59 97  5.09473674E-09
  2 59 98  5.08050952E-09
  2 59 99  5.06650924E-09
  2 59 100  5.05158818E-09
  2 59 101  5.03604537E-09
  2 59 102  5.02021418E-09
  2 59 103  5.00420542E-09
  2 59 104  4.96966025E-09
  2 59 105  4.92944722E-09
  2 59 106  4.88889840E-09
  2 59 107  4.85409486E-09
  2 59 108  4.81957291E-09
  2 59 109  4.78421777E-09
  2 59 110  4.74998759E-09
  2 59 111  4.70969279E-09
  2 59 127  5.76397418E-09
  2 59 128  5.85808166E-09
  2 59 129  5.96983429E-09
  2 60 75  5.08652479E-09
  2 60 76  5.08739282E-09
  2 60 77  5.09015804E-09
  2 60 78  5.09320147E-09
  2 60 79  5.09605379E-09
  2 60 80  5.09933479E-09
  2 60 81  5.10162294E-09
  2 60 82  5.10417187E-09
  2 60 83  5.10854349E-09
  2 60 84  5.11263930E-09
  2 60 85  5.11686140E-09
  2 60 86  5.12060497E-09
  2 60 87  5.12480675E-09
  2 60 88  5.12756375E-09
  2 60 89  5.12933126E-09
  2 60 90  5.13025687E-09
  2 60 91  5.13030526E-09
  2 60 92  5.13038171E-09
  2 60 93  5.12289215E-09
  2 60 94  5.11312025E-09
  2 60 95  5.10232210E-09
  2 60 96  5.09052625E-09
  2 60 97  5.07780769E-09
  2 60 98  5.06425739E-09
  2 60 99  5.05078450E-09
  2 60 100  5.03621326E-09
  2 60 101  5.02076384E-09
  2 60 102  5.00478314E-09
  2 60 103  4.98363247E-09
  2 60 104  4.94843313E-09
  2 60 105  4.90765061E-09
  2 60 106  4.86643698E-09
  2 60 107  4.82793583E-09
  2 60 108  4.78956676E-09
  2 60 109  4.75017193E-09
  2 60 110  4.71196351E-09
  2 60 111  4.66839448E-09
  2 60 128  5.83197585E-09
  2 60 129  5.96856466E-09
  2 61 71  5.08065904E-09
  2 61 72  5.08130982E-09
  2 61 74  5.07582099E-09
  2 61 75  5.07808639E-09
  2 61 76  5.07998261E-09
  2 61 77  5.08177964E-09
  2 61 78  5.08378279E-09
  2 61 79  5.08589384E-09
  2 61 80  5.08829133E-09
  2 61 81  5.09091769E-09
  2 61 82  5.09380145E-09
  2 61 83  5.09686569E-09
  2 61 84  5.10446751E-09
  2 61 85  5.10734063E-09
  2 61 86  5.11024665E-09
  2 61 87  5.11309993E-09
  2 61 88  5.11543839E-09
  2 61 89  5.11694317E-09
  2 61 90  5.11762976E-09
  2 61 91  5.11749573E-09
  2 61 92  5.11641819E-09
  2 61 93  5.10781238E-09
  2 61 94  5.09821903E-09
  2 61 95  5.08767103E-09
  2 61 96  5.07621097E-09
  2 61 97  5.06388869E-09
  2 61 98  5.05072498E-09
  2 61 99  5.03754821E-09
  2 61 100  5.02316326E-09
  2 61 101  5.00772497E-09
  2 61 102  4.99152024E-09
  2 61 103  4.96515703E-09
  2 61 104  4.92923046E-09
  2 61 105  4.88772506E-09
  2 61 106  4.84571936E-09
  2 61 107  4.80397591E-09
  2 61 108  4.76247245E-09
  2 61 109  4.72014014E-09
  2 61 110  4.67310286E-09
  2 61 111  4.62735407E-09
  2 61 112  4.57565824E-09
  2 61 122  4.97774011E-09
  2 61 123  5.19519479E-09
  2 61 124  5.41388039E-09
  2 61 127  5.70550538E-09
  2 61 128  5.82662928E-09
  2 61 129  5.97544941E-09
  2 62 71  5.08050614E-09
  2 62 72  5.08114531E-09
  2 62 73  5.07226709E-09
  2 62 74  5.06612457E-09
  2 62 75  5.06169200E-09
  2 62 76  5.06460866E-09
  2 62 77  5.06676423E-09
  2 62 78  5.06885496E-09
  2 62 79  5.07104391E-09
  2 62 80  5.07318447E-09
  2 62 81  5.07531875E-09
  2 62 82  5.07764608E-09
  2 62 83  5.07997632E-09
  2 62 84  5.08723315E-09
  2 62 85  5.09453691E-09
  2 62 86  5.10183535E-09
  2 62 87  5.10421252E-09
  2 62 88  5.10611358E-09
  2 62 89  5.10727724E-09
  2 62 90  5.10763674E-09
  2 62 91  5.10718289E-09
  2 62 92  5.10583971E-09
  2 62 93  5.09711681E-09
  2 62 94  5.08751136E-09
  2 62 95  5.07703691E-09
  2 62 96  5.06571282E-09
  2 62 97  5.05357197E-09
  2 62 98  5.04052391E-09
  2 62 99  5.02739843E-09
  2 62 100  5.01299800E-09
  2 62 101  4.99742567E-09
  2 62 102  4.98089822E-09
  2 62 103  4.94922520E-09
  2 62 104  4.90771351E-09
  2 62 105  4.86516493E-09
  2 62 106  4.82201104E-09
  2 62 107  4.77890700E-09
  2 62 108  4.73460348E-09
  2 62 109  4.68987949E-09
  2 62 110  4.64728639E-09
  2 62 111  4.60133632E-09
  2 62 112  4.55118883E-09
  2 62 113  4.49405788E-09
  2 62 118  4.39693455E-09
  2 62 119  4.41108531E-09
  2 62 120  4.58872276E-09
  2 62 121  4.76398836E-09
  2 62 122  4.99217974E-09
  2 62 123  5.19032529E-09
  2 62 124  5.39819533E-09
  2 62 127  5.69726149E-09
  2 62 129  5.99021805E-09
  2 63 71  5.04918827E-09
  2 63 72  5.05495676E-09
  2 63 73  5.05029677E-09
  2 63 74  5.04705689E-09
  2 63 75  5.04473972E-09
  2 63 76  5.04301817E-09
  2 63 77  5.04644192E-09
  2 63 78  5.04906440E-09
  2 63 79  5.06300953E-09
  2 63 80  5.06498752E-09
  2 63 81  5.06684793E-09
  2 63 82  5.06887528E-09
  2 63 83  5.07093601E-09
  2 63 84  5.07787301E-09
  2 63 85  5.08471614E-09
  2 63 86  5.09151525E-09
  2 63 87  5.09827709E-09
  2 63 88  5.09975623E-09
  2 63 89  5.10060394E-09
  2 63 90  5.10065910E-09
  2 63 91  5.09991687E-09
  2 63 92  5.09834338E-09
  2 63 93  5.08945016E-09
  2 63 94  5.07975471E-09
  2 63 95  5.06925510E-09
  2 63 96  5.05795665E-09
  2 63 97  5.04587581E-09
  2 63 98  5.03277887E-09
  2 63 99  5.01954549E-09
  2 63 100  5.00500087E-09
  2 63 101  4.98919436E-09
  2 63 102  4.97228612E-09
  2 63 103  4.93527765E-09
  2 63 104  4.89294100E-09
  2 63 105  4.84935358E-09
  2 63 106  4.80478926E-09
  2 63 107  4.76022737E-09
  2 63 108  4.71449793E-09
  2 63 109  4.66794353E-09
  2 63 110  4.62417757E-09
  2 63 111  4.57803590E-09
  2 63 112  4.52910723E-09
  2 63 113  4.47581759E-09
  2 63 114  4.44690834E-09
  2 63 115  4.42703456E-09
  2 63 116  4.41015777E-09
  2 63 117  4.41036534E-09
  2 63 118  4.42556413E-09
  2 63 119  4.47694352E-09
  2 63 120  4.64017666E-09
  2 63 121  4.80581890E-09
  2 63 122  5.01247979E-09
  2 63 123  5.20698629E-09
  2 63 124  5.40945942E-09
  2 63 125  5.51009263E-09
  2 63 126  5.59864402E-09
  2 63 127  5.70193261E-09
  2 63 128  5.83813530E-09
  2 63 129  6.00777611E-09
  2 64 72  5.01250156E-09
  2 64 73  5.01347991E-09
  2 64 74  5.01450181E-09
  2 64 75  5.01543178E-09
  2 64 76  5.01627900E-09
  2 64 77  5.01564322E-09
  2 64 78  5.02429258E-09
  2 64 79  5.04357702E-09
  2 64 80  5.05044096E-09
  2 64 81  5.05723377E-09
  2 64 82  5.05933612E-09
  2 64 83  5.06146071E-09
  2 64 84  5.06838126E-09
  2 64 85  5.07503763E-09
  2 64 86  5.08158658E-09
  2 64 87  5.08802183E-09
  2 64 88  5.09406128E-09
  2 64 89  5.09469126E-09
  2 64 90  5.09455965E-09
  2 64 91  5.09366307E-09
  2 64 92  5.09196813E-09
  2 64 93  5.08298443E-09
  2 64 94  5.07321641E-09
  2 64 95  5.06268922E-09
  2 64 96  5.05139464E-09
  2 64 97  5.03934089E-09
  2 64 98  5.02612783E-09
  2 64 99  5.01272704E-09
  2 64 100  4.99797436E-09
  2 64 101  4.98188189E-09
  2 64 102  4.96455608E-09
  2 64 103  4.92697764E-09
  2 64 104  4.88391181E-09
  2 64 105  4.83945443E-09
  2 64 106  4.79352129E-09
  2 64 107  4.74770767E-09
  2 64 108  4.70090747E-09
  2 64 109  4.65386873E-09
  2 64 110  4.61021164E-09
  2 64 111  4.56504831E-09
  2 64 112  4.51839714E-09
  2 64 113  4.46936396E-09
  2 64 114  4.44455536E-09
  2 64 115  4.43071910E-09
  2 64 116  4.42249118E-09
  2 64 117  4.42830516E-09
  2 64 118  4.44977614E-09
  2 64 119  4.52917303E-09
  2 64 120  4.68461517E-09
  2 64 121  4.84324929E-09
  2 64 122  5.02908514E-09
  2 64 123  5.21009166E-09
  2 64 124  5.40379012E-09
  2 64 125  5.50584101E-09
  2 64 126  5.59759164E-09
  2 64 127  5.70406737E-09
  2 64 128  5.84264143E-09
  2 64 129  6.01532277E-09
  2 65 74  4.97613178E-09
  2 65 75  4.97431637E-09
  2 65 76  4.97864395E-09
  2 65 77  4.97995809E-09
  2 65 78  4.98891276E-09
  2 65 79  5.00834139E-09
  2 65 80  5.01610869E-09
  2 65 81  5.02315165E-09
  2 65 82  5.02385517E-09
  2 65 83  5.02621928E-09
  2 65 84  5.03331063E-09
  2 65 85  5.03998199E-09
  2 65 86  5.05137383E-09
  2 65 87  5.05773988E-09
  2 65 88  5.06370192E-09
  2 65 89  5.06917817E-09
  2 65 90  5.07393299E-09
  2 65 91  5.07796930E-09
  2 65 92  5.08121160E-09
  2 65 93  5.07721400E-09
  2 65 94  5.06758000E-09
  2 65 95  5.05717136E-09
  2 65 96  5.04597403E-09
  2 65 97  5.03398367E-09
  2 65 98  5.02064384E-09
  2 65 99  5.00702193E-09
  2 65 100  4.99200942E-09
  2 65 101  4.97560196E-09
  2 65 102  4.95785810E-09
  2 65 103  4.91498534E-09
  2 65 104  4.87123874E-09
  2 65 105  4.82601299E-09
  2 65 106  4.77926553E-09
  2 65 107  4.73180681E-09
  2 65 108  4.68356521E-09
  2 65 109  4.64070454E-09
  2 65 110  4.59702326E-09
  2 65 111  4.55267474E-09
  2 65 112  4.50794108E-09
  2 65 113  4.46242260E-09
  2 65 114  4.44127532E-09
  2 65 115  4.43242178E-09
  2 65 116  4.43085603E-09
  2 65 117  4.44405554E-09
  2 65 118  4.47049230E-09
  2 65 119  4.57163017E-09
  2 65 120  4.72092108E-09
  2 65 121  4.87400928E-09
  2 65 122  5.04447844E-09
  2 65 123  5.21494760E-09
  2 65 124  5.40124795E-09
  2 65 125  5.50427139E-09
  2 65 126  5.59856564E-09
  2 65 127  5.70765079E-09
  2 65 128  5.84838525E-09
  2 65 129  6.02409841E-09
  2 66 73  4.92425064E-09
  2 66 74  4.92708602E-09
  2 66 75  4.92343196E-09
  2 66 76  4.92615073E-09
  2 66 77  4.92481143E-09
  2 66 78  4.93343369E-09
  2 66 79  4.95833664E-09
  2 66 80  4.96613877E-09
  2 66 81  4.97395686E-09
  2 66 82  4.97503247E-09
  2 66 83  4.97294658E-09
  2 66 84  4.97065069E-09
  2 66 85  4.97747689E-09
  2 66 86  4.98902066E-09
  2 66 87  4.99552026E-09
  2 66 88  5.00654291E-09
  2 66 89  5.01717558E-09
  2 66 90  5.02718602E-09
  2 66 91  5.03650454E-09
  2 66 92  5.04501503E-09
  2 66 93  5.04631079E-09
  2 66 94  5.04194499E-09
  2 66 95  5.03677115E-09
  2 66 96  5.03076943E-09
  2 66 97  5.02392582E-09
  2 66 98  5.01552564E-09
  2 66 99  5.00185728E-09
  2 66 100  4.98671510E-09
  2 66 101  4.97008507E-09
  2 66 102  4.94723560E-09
  2 66 103  4.90384511E-09
  2 66 104  4.85950433E-09
  2 66 105  4.81363555E-09
  2 66 106  4.76623876E-09
  2 66 107  4.71724090E-09
  2 66 108  4.66779499E-09
  2 66 109  4.62424676E-09
  2 66 110  4.58061677E-09
  2 66 111  4.53714838E-09
  2 66 112  4.49432013E-09
  2 66 113  4.45727489E-09
  2 66 114  4.43967183E-09
  2 66 115  4.43524071E-09
  2 66 116  4.43917685E-09
  2 66 117  4.45800599E-09
  2 66 118  4.48855212E-09
  2 66 119  4.60706660E-09
  2 66 120  4.75138350E-09
  2 66 121  4.89997477E-09
  2 66 122  5.06474414E-09
  2 66 123  5.22537609E-09
  2 66 124  5.40375818E-09
  2 66 125  5.50675888E-09
  2 66 126  5.60234405E-09
  2 66 127  5.71246125E-09
  2 66 128  5.85315313E-09
  2 66 129  6.02849566E-09
  2 67 73  4.85520094E-09
  2 67 74  4.85768021E-09
  2 67 75  4.85386744E-09
  2 67 76  4.85599011E-09
  2 67 77  4.85907612E-09
  2 67 78  4.86812175E-09
  2 67 79  4.88809279E-09
  2 67 80  4.90134068E-09
  2 67 81  4.91477196E-09
  2 67 82  4.91623803E-09
  2 67 83  4.91460697E-09
  2 67 84  4.91278671E-09
  2 67 85  4.91513630E-09
  2 67 86  4.92215556E-09
  2 67 87  4.92938045E-09
  2 67 88  4.94081535E-09
  2 67 89  4.95683185E-09
  2 67 90  4.97239208E-09
  2 67 91  4.98735524E-09
  2 67 92  5.00156890E-09
  2 67 93  5.00861864E-09
  2 67 94  5.00997391E-09
  2 67 95  5.01044422E-09
  2 67 96  5.00999859E-09
  2 67 97  5.00857800E-09
  2 67 98  5.00537779E-09
  2 67 99  4.99675408E-09
  2 67 100  4.98168641E-09
  2 67 101  4.96499736E-09
  2 67 102  4.93717629E-09
  2 67 103  4.89337743E-09
  2 67 104  4.84853200E-09
  2 67 105  4.80214597E-09
  2 67 106  4.75425082E-09
  2 67 107  4.70483539E-09
  2 67 108  4.65399647E-09
  2 67 109  4.60964069E-09
  2 67 110  4.56595506E-09
  2 67 111  4.52323809E-09
  2 67 112  4.48210816E-09
  2 67 113  4.45257861E-09
  2 67 114  4.43819560E-09
  2 67 115  4.43766336E-09
  2 67 116  4.44620579E-09
  2 67 117  4.46528024E-09
  2 67 118  4.49459593E-09
  2 67 119  4.62290843E-09
  2 67 120  4.76662584E-09
  2 67 121  4.91514211E-09
  2 67 122  5.07404138E-09
  2 67 123  5.23188875E-09
  2 67 124  5.40941104E-09
  2 67 125  5.51649207E-09
  2 67 126  5.61801750E-09
  2 67 127  5.73584103E-09
  2 67 128  5.87521974E-09
  2 67 129  6.04861669E-09
  2 68 72  4.74196240E-09
  2 68 73  4.76313145E-09
  2 68 74  4.78907759E-09
  2 68 75  4.79000223E-09
  2 68 76  4.79063076E-09
  2 68 77  4.79705245E-09
  2 68 78  4.80935538E-09
  2 68 79  4.82001951E-09
  2 68 80  4.82862677E-09
  2 68 81  4.83733225E-09
  2 68 82  4.84427409E-09
  2 68 83  4.84332332E-09
  2 68 84  4.84222788E-09
  2 68 85  4.84536324E-09
  2 68 86  4.85324908E-09
  2 68 87  4.85653638E-09
  2 68 88  4.86897866E-09
  2 68 89  4.88612883E-09
  2 68 90  4.90787657E-09
  2 68 91  4.92920288E-09
  2 68 92  4.94991566E-09
  2 68 93  4.96318049E-09
  2 68 94  4.97075134E-09
  2 68 95  4.97735109E-09
  2 68 96  4.98290040E-09
  2 68 97  4.98725024E-09
  2 68 98  4.98958628E-09
  2 68 99  4.98633527E-09
  2 68 100  4.97650967E-09
  2 68 101  4.95528207E-09
  2 68 102  4.92269457E-09
  2 68 103  4.87865717E-09
  2 68 104  4.83344885E-09
  2 68 105  4.78660510E-09
  2 68 106  4.73823770E-09
  2 68 107  4.68846713E-09
  2 68 108  4.63763062E-09
  2 68 109  4.59230569E-09
  2 68 110  4.54839264E-09
  2 68 111  4.50624904E-09
  2 68 112  4.47131050E-09
  2 68 113  4.44898165E-09
  2 68 114  4.43759659E-09
  2 68 115  4.43935394E-09
  2 68 116  4.44969437E-09
  2 68 117  4.46962911E-09
  2 68 118  4.49901496E-09
  2 68 119  4.64063535E-09
  2 68 120  4.78866389E-09
  2 68 121  4.94219385E-09
  2 68 122  5.10154262E-09
  2 68 123  5.26732034E-09
  2 68 124  5.44037183E-09
  2 68 125  5.52707297E-09
  2 68 126  5.62478467E-09
  2 68 127  5.73748904E-09
  2 68 128  5.87027427E-09
  2 68 129  6.03372466E-09
  2 69 72  4.66542266E-09
  2 69 73  4.69249569E-09
  2 69 74  4.70746223E-09
  2 69 75  4.71373103E-09
  2 69 76  4.72275876E-09
  2 69 77  4.73185858E-09
  2 69 78  4.74244577E-09
  2 69 79  4.75000210E-09
  2 69 80  4.75474289E-09
  2 69 81  4.75948659E-09
  2 69 82  4.76196198E-09
  2 69 83  4.76632150E-09
  2 69 84  4.76576216E-09
  2 69 85  4.76967170E-09
  2 69 86  4.77849717E-09
  2 69 87  4.78289298E-09
  2 69 88  4.79174652E-09
  2 69 89  4.81028680E-09
  2 69 90  4.83363997E-09
  2 69 91  4.85674782E-09
  2 69 92  4.88426164E-09
  2 69 93  4.89935834E-09
  2 69 94  4.90879976E-09
  2 69 95  4.91717671E-09
  2 69 96  4.92428112E-09
  2 69 97  4.92987253E-09
  2 69 98  4.93792094E-09
  2 69 99  4.93544652E-09
  2 69 100  4.92622186E-09
  2 69 101  4.90541037E-09
  2 69 102  4.87304786E-09
  2 69 103  4.82892434E-09
  2 69 104  4.78822262E-09
  2 69 105  4.74583274E-09
  2 69 106  4.70194630E-09
  2 69 107  4.65684975E-09
  2 69 108  4.61111016E-09
  2 69 109  4.56160860E-09
  2 69 110  4.52316745E-09
  2 69 111  4.48675751E-09
  2 69 112  4.45775681E-09
  2 69 113  4.44153709E-09
  2 69 114  4.43705758E-09
  2 69 115  4.44091582E-09
  2 69 116  4.45323036E-09
  2 69 117  4.47468489E-09
  2 69 118  4.50520199E-09
  2 69 119  4.64741123E-09
  2 69 120  4.79571799E-09
  2 69 121  4.94940761E-09
  2 69 122  5.10875348E-09
  2 69 123  5.27432508E-09
  2 69 124  5.44699094E-09
  2 69 125  5.53286420E-09
  2 69 126  5.62970690E-09
  2 69 127  5.74145082E-09
  2 69 128  5.87360318E-09
  2 69 129  6.03663746E-09
  2 70 72  4.60784221E-09
  2 70 73  4.63105651E-09
  2 70 74  4.64295204E-09
  2 70 75  4.64677932E-09
  2 70 76  4.65272297E-09
  2 70 77  4.66641794E-09
  2 70 78  4.67444168E-09
  2 70 79  4.67812912E-09
  2 70 80  4.67829315E-09
  2 70 81  4.68371617E-09
  2 70 82  4.68396681E-09
  2 70 83  4.68359618E-09
  2 70 84  4.68819181E-09
  2 70 85  4.69762162E-09
  2 70 86  4.70738046E-09
  2 70 87  4.71785587E-09
  2 70 88  4.73305467E-09
  2 70 89  4.74840055E-09
  2 70 90  4.76870834E-09
  2 70 91  4.78887582E-09
  2 70 92  4.81354410E-09
  2 70 93  4.82562736E-09
  2 70 94  4.83692969E-09
  2 70 95  4.84710657E-09