BEGIN options
  SAVE_FLOWS
END options

BEGIN dimensions
  MAXBOUND  173
END dimensions

BEGIN period  1
  2 114 2     168.26725278   7.3963933592e-03  166.26725278
  2 114 3     163.13890908   7.3963933592e-03  161.13890908
  2 113 5     154.00000000   7.3963933592e-03  152.00000000
  2 113 6     152.37017676   7.3963933592e-03  150.37017676
  2 113 7     150.74476716   7.3963933592e-03  148.74476716
  2 113 8     149.11995384   7.3963933592e-03  147.11995384
  2 113 9     147.60751965   7.3963933592e-03  145.60751965
  2 112 9     146.07037853   7.3963933592e-03  144.07037853
  2 111 9     144.38528449   7.3963933592e-03  142.38528449
  2 110 10     142.21459227   7.3963933592e-03  140.21459227
  2 110 11     141.05811729   7.3963933592e-03  139.05811729
  4 109 11     139.88522267   7.3963933592e-03  137.88522267
  2 109 12     138.68417067   7.3963933592e-03  136.68417067
  4 108 12     137.82158160   7.3963933592e-03  135.82158160
  4 108 13     136.32956030   7.3963933592e-03  134.32956030
  2 108 14     134.68484227   7.3963933592e-03  132.68484227
  2 108 15     133.01912754   7.3963933592e-03  131.01912754
  2 108 16     131.38843742   7.3963933592e-03  129.38843742
  2 107 16     130.44557976   7.3963933592e-03  128.44557976
  2 107 17     129.47000000   7.3963933592e-03  127.47000000
  2 106 17     126.95674846   7.3963933592e-03  124.95674846
  2 105 17     125.05000000   7.3963933592e-03  123.05000000
  2 105 18     124.41967494   7.3963933592e-03  122.41967494
  2 104 18     123.54438654   7.3963933592e-03  121.54438654
  2 104 19     122.71392399   7.3963933592e-03  120.71392399
  2 103 19     121.96832476   7.3963933592e-03  119.96832476
  2 103 20     121.06965373   7.3963933592e-03  119.06965373
  4 102 20     120.26218686   7.3963933592e-03  118.26218686
  2 102 21     119.44000000   7.3963933592e-03  117.44000000
  4 101 21     117.17677316   7.3963933592e-03  115.17677316
  4 101 22     114.60000000   7.3963933592e-03  112.60000000
  2 101 23     113.27632535   7.3963933592e-03  111.27632535
  2 101 24     111.95628269   7.3963933592e-03  109.95628269
  2 101 25     110.61755312   7.3963933592e-03  108.61755312
  2 101 26     109.20000000   7.3963933592e-03  107.20000000
  2 101 27     107.68617677   7.3963933592e-03  105.68617677
  2 100 27     106.38322468   7.3963933592e-03  104.38322468
  2 100 28     104.14000000   7.3963933592e-03  102.14000000
  2 100 29     104.14000000   7.3963933592e-03  102.14000000
  2 99 29      99.00000000   7.3963933592e-03   97.00000000
  2 99 30      98.02487359   7.3963933592e-03   96.02487359
  2 99 31      96.82983178   7.3963933592e-03   94.82983178
  2 99 32      95.89345158   7.3963933592e-03   93.89345158
  2 100 32      95.42978543   7.3963933592e-03   93.42978543
  2 100 33      94.95343815   7.3963933592e-03   92.95343815
  2 100 34      94.00000000   7.3963933592e-03   92.00000000
  2 100 35      94.00000000   7.3963933592e-03   92.00000000
  2 100 36      94.00000000   7.3963933592e-03   92.00000000
  2 101 36      94.00000000   7.3963933592e-03   92.00000000
  2 101 37      94.00000000   7.3963933592e-03   92.00000000
  2 101 38      89.60000000   7.3963933592e-03   87.60000000
  2 101 39      89.30000000   7.3963933592e-03   87.30000000
  2 102 39      89.43369001   7.3963933592e-03   87.43369001
  2 102 40      89.60000000   7.3963933592e-03   87.60000000
  2 102 41      86.89287680   7.3963933592e-03   84.89287680
  2 102 42      84.11000000   7.3963933592e-03   82.11000000
  2 102 43      81.96918452   7.3963933592e-03   79.96918452
  2 103 43      80.69190651   7.3963933592e-03   78.69190651
  2 103 44      79.22000000   7.3963933592e-03   77.22000000
  2 103 45      79.18000000   7.3963933592e-03   77.18000000
  2 103 46      78.03649666   7.3963933592e-03   76.03649666
  2 104 46      76.97174705   7.3963933592e-03   74.97174705
  2 104 47      75.23557892   7.3963933592e-03   73.23557892
  2 104 48      74.03000000   7.3963933592e-03   72.03000000
  2 105 48      70.48000000   7.3963933592e-03   68.48000000
  2 105 49      70.00057146   7.3963933592e-03   68.00057146
  2 105 50      69.38000000   7.3963933592e-03   67.38000000
  2 105 51      66.39541558   7.3963933592e-03   64.39541558
  2 105 52      63.37000000   7.3963933592e-03   61.37000000
  2 105 53      63.86451097   7.3963933592e-03   61.86451097
  2 105 54      64.36000000   7.3963933592e-03   62.36000000
  2 105 55      64.50000000   7.3963933592e-03   62.50000000
  2 105 56      61.85579911   7.3963933592e-03   59.85579911
  2 105 57      60.00000000   7.3963933592e-03   58.00000000
  2 106 57      59.36000000   7.3963933592e-03   57.36000000
  2 106 58      59.36000000   7.3963933592e-03   57.36000000
  2 106 59      57.98744416   7.3963933592e-03   55.98744416
  2 105 59      57.02217398   7.3963933592e-03   55.02217398
  2 105 60      55.72153117   7.3963933592e-03   53.72153117
  2 105 61      54.00000000   7.3963933592e-03   52.00000000
  2 105 62      53.07668952   7.3963933592e-03   51.07668952
  2 105 63      52.16729034   7.3963933592e-03   50.16729034
  2 105 64      51.41387083   7.3963933592e-03   49.41387083
  2 104 64      50.96085029   7.3963933592e-03   48.96085029
  2 104 65      50.36175342   7.3963933592e-03   48.36175342
  2 104 66      49.44000000   7.3963933592e-03   47.44000000
  2 104 67      49.39484672   7.3963933592e-03   47.39484672
  2 104 68      49.36000000   7.3963933592e-03   47.36000000
  2 103 68      48.16485955   7.3963933592e-03   46.16485955
  2 103 69      46.41978734   7.3963933592e-03   44.41978734
  2 103 70      44.00000000   7.3963933592e-03   42.00000000
  2 103 71      44.00000000   7.3963933592e-03   42.00000000
  2 103 72      41.00000000   7.3963933592e-03   39.00000000
  2 103 73      39.16000000   7.3963933592e-03   37.16000000
  2 102 73      39.46000000   7.3963933592e-03   37.46000000
  2 102 74      39.67377121   7.3963933592e-03   37.67377121
  2 101 74      39.79953003   7.3963933592e-03   37.79953003
  2 101 75      40.00000000   7.3963933592e-03   38.00000000
  2 101 76      34.42000000   7.3963933592e-03   32.42000000
  2 101 77      34.70910515   7.3963933592e-03   32.70910515
  2 101 78      34.85830723   7.3963933592e-03   32.85830723
  2 100 78      35.00000000   7.3963933592e-03   33.00000000
  2 100 79      34.28000000   7.3963933592e-03   32.28000000
  2 100 80      32.51153438   7.3963933592e-03   30.51153438
  2 100 81      30.75477228   7.3963933592e-03   28.75477228
  2 100 82      29.00000000   7.3963933592e-03   27.00000000
  2 100 83      29.02942790   7.3963933592e-03   27.02942790
  2 100 84      29.04801170   7.3963933592e-03   27.04801170
  2 99 84      29.06281359   7.3963933592e-03   27.06281359
  2 99 85      29.08867154   7.3963933592e-03   27.08867154
  2 99 86      29.11906979   7.3963933592e-03   27.11906979
  2 99 87      29.15000000   7.3963933592e-03   27.15000000
  2 99 88      28.31709792   7.3963933592e-03   26.31709792
  2 98 88      27.59088337   7.3963933592e-03   25.59088337
  2 98 89      26.21822354   7.3963933592e-03   24.21822354
  2 98 90      24.71398407   7.3963933592e-03   22.71398407
  2 98 91      23.72904182   7.3963933592e-03   21.72904182
  2 97 91      22.95900603   7.3963933592e-03   20.95900603
  2 97 92      21.63924383   7.3963933592e-03   19.63924383
  2 97 93      20.43744293   7.3963933592e-03   18.43744293
  2 96 93      19.60179200   7.3963933592e-03   17.60179200
  2 96 94      18.44000000   7.3963933592e-03   16.44000000
  2 96 95      17.78185612   7.3963933592e-03   15.78185612
  2 96 96      17.38506511   7.3963933592e-03   15.38506511
  2 95 96      17.05378796   7.3963933592e-03   15.05378796
  2 95 97      16.46062806   7.3963933592e-03   14.46062806
  2 95 98      15.87846140   7.3963933592e-03   13.87846140
  2 94 98      15.54607788   7.3963933592e-03   13.54607788
  2 94 99      15.13967200   7.3963933592e-03   13.13967200
  2 94 100      14.47535816   7.3963933592e-03   12.47535816
  2 94 101      13.85132973   7.3963933592e-03   11.85132973
  2 93 101      13.52000000   7.3963933592e-03   11.52000000
  2 93 102      13.42809414   7.3963933592e-03   11.42809414
  2 94 102      13.12719869   7.3963933592e-03   11.12719869
  2 94 103      12.61973296   7.3963933592e-03   10.61973296
  2 93 103      12.31773882   7.3963933592e-03   10.31773882
  2 94 104      11.95174135   7.3963933592e-03    9.95174135
  2 94 105      11.33115770   7.3963933592e-03    9.33115770
  2 94 106      10.72532524   7.3963933592e-03    8.72532524
  2 94 107      10.13362555   7.3963933592e-03    8.13362555
  2 94 108       9.54134609   7.3963933592e-03    7.54134609
  2 94 109       8.94766174   7.3963933592e-03    6.94766174
  2 94 110       8.35646148   7.3963933592e-03    6.35646148
  2 94 111       7.75649593   7.3963933592e-03    5.75649593
  2 94 112       7.36740304   7.3963933592e-03    5.36740304
  4 95 112       7.07146780   7.3963933592e-03    5.07146780
  2 95 113       6.69000000   7.3963933592e-03    4.69000000
  2 94 113       6.47141565   7.3963933592e-03    4.47141565
  2 94 114       6.14400407   7.3963933592e-03    4.14400407
  2 94 115       5.68949386   7.3963933592e-03    3.68949386
  2 94 116       5.24079097   7.3963933592e-03    3.24079097
  2 94 117       4.86288589   7.3963933592e-03    2.86288589
  2 95 117       4.57897030   7.3963933592e-03    2.57897030
  2 95 118       4.24587335   7.3963933592e-03    2.24587335
  2 96 118       3.98095329   7.3963933592e-03    1.98095329
  2 96 119       3.69267509   7.3963933592e-03    1.69267509
  2 96 120       3.44817238   7.3963933592e-03    1.44817238
  2 95 120       3.17101969   7.3963933592e-03    1.17101969
  2 95 121       2.84893659   7.3963933592e-03    0.84893659
  2 94 121       2.51391514   7.3963933592e-03    0.51391514
  2 94 122       2.02828902   7.3963933592e-03    0.02828902
  2 94 123       1.58001388   7.3963933592e-03   -0.41998612
  2 94 124       1.18259003   7.3963933592e-03   -0.81740997
  2 95 124       0.92275546   7.3963933592e-03   -1.07724454
  2 95 125       0.58000000   7.3963933592e-03   -1.42000000
  2 96 125       0.53080169   7.3963933592e-03   -1.46919831
  2 96 126       0.48311403   7.3963933592e-03   -1.51688597
  2 96 127       0.39880444   7.3963933592e-03   -1.60119556
  2 95 127       0.35496981   7.3963933592e-03   -1.64503019
  2 95 128       0.30645339   7.3963933592e-03   -1.69354661
  2 95 129       0.23969267   7.3963933592e-03   -1.76030733
  2 94 129       0.18814509   7.3963933592e-03   -1.81185491
  2 93 130       0.10000000   7.3963933592e-03   -1.90000000
END period  1


