BEGIN options
  SAVE_FLOWS
END options

BEGIN dimensions
  MAXBOUND  16
END dimensions

BEGIN period  1
  1 113 32     120.00000000
  1 114 33     120.00000000
  1 114 34     120.00000000
  1 115 35     120.00000000
  1 116 36     120.00000000
  1 117 37     120.00000000
  1 118 37     120.00000000
  1 119 38     120.00000000
  1 120 39     120.00000000
  1 120 40     120.00000000
  1 120 41     120.00000000
  1 120 42     120.00000000
  1 121 40     120.00000000
  1 121 43     120.00000000
  1 121 44     120.00000000
  1 122 45     120.00000000
END period  1

