BEGIN options
END options

BEGIN timing
  TDIS6  I3D_2700_mf6.tdis
END timing

BEGIN models
  gwf6  I3D_2700.nam  I3D_2700
END models

BEGIN exchanges
END exchanges

BEGIN solutiongroup  1
  ims6  I3D_2700_mf6.ims  I3D_2700
END solutiongroup  1

