BEGIN options
  SAVE_FLOWS
END options

BEGIN dimensions
  MAXBOUND  129
END dimensions

BEGIN period  1
  4 140 57     125.00000000       0.01000000     123.00000000
  4 140 58     124.22075546       0.01000000     122.22075546
  2 141 58     122.74242380       0.01000000     120.74242380
  2 141 59     120.00000000       0.01000000     118.00000000
  4 140 59     118.62436093       0.01000000     116.62436093
  4 140 60     118.25448571       0.01000000     116.25448571
  2 141 60     117.21256498       0.01000000     115.21256498
  4 142 60     116.02788190       0.01000000     114.02788190
  2 142 61     115.00000000       0.01000000     113.00000000
  2 142 62     110.00000000       0.01000000     108.00000000
  2 142 63     107.15867043       0.01000000     105.15867043
  2 142 64     104.00000000       0.01000000     102.00000000
  2 142 65     102.31241484       0.01000000     100.31241484
  4 141 65     101.36004674       0.01000000      99.36004674
  2 141 66     100.00000000       0.01000000      98.00000000
  2 141 67     100.00000000       0.01000000      98.00000000
  2 141 68      95.00000000       0.01000000      93.00000000
  5 140 68      93.94933755       0.01000000      91.94933755
  2 140 69      93.12647123       0.01000000      91.12647123
  5 141 69      92.15456643       0.01000000      90.15456643
  2 140 70      91.20648015       0.01000000      89.20648015
  5 139 70      90.00000000       0.01000000      88.00000000
  2 139 71      87.22838919       0.01000000      85.22838919
  5 138 71      85.00000000       0.01000000      83.00000000
  2 138 72      83.71911857       0.01000000      81.71911857
  2 138 73      82.54212533       0.01000000      80.54212533
  5 137 73      81.65338493       0.01000000      79.65338493
  2 137 74      80.00000000       0.01000000      78.00000000
  2 138 74      79.10873162       0.01000000      77.10873162
  2 138 75      78.13064594       0.01000000      76.13064594
  2 138 76      76.42584413       0.01000000      74.42584413
  2 138 77      75.00000000       0.01000000      73.00000000
  2 137 77      69.00000000       0.01000000      67.00000000
  2 136 77      69.00000000       0.01000000      67.00000000
  2 135 77      69.00000000       0.01000000      67.00000000
  2 135 78      69.00000000       0.01000000      67.00000000
  2 134 78      66.76772892       0.01000000      64.76772892
  2 135 79      65.00000000       0.01000000      63.00000000
  4 135 80      65.00000000       0.01000000      63.00000000
  2 134 80      65.00000000       0.01000000      63.00000000
  2 133 80      60.00000000       0.01000000      58.00000000
  4 133 81      58.79270125       0.01000000      56.79270125
  2 132 81      58.56488257       0.01000000      56.56488257
  2 132 80      57.85596280       0.01000000      55.85596280
  2 131 80      56.94704925       0.01000000      54.94704925
  2 131 81      56.22334218       0.01000000      54.22334218
  2 130 81      55.00000000       0.01000000      53.00000000
  2 130 82      53.16640078       0.01000000      51.16640078
  2 129 82      51.47793614       0.01000000      49.47793614
  2 128 82      50.29813647       0.01000000      48.29813647
  2 128 83      49.00000000       0.01000000      47.00000000
  2 127 83      48.07639001       0.01000000      46.07639001
  4 127 84      47.44016787       0.01000000      45.44016787
  2 126 84      46.38492046       0.01000000      44.38492046
  2 125 84      45.30838867       0.01000000      43.30838867
  2 125 85      44.69252484       0.01000000      42.69252484
  2 124 84      44.00000000       0.01000000      42.00000000
  2 124 85      41.76565090       0.01000000      39.76565090
  2 123 85      39.00000000       0.01000000      37.00000000
  2 122 86      36.28718303       0.01000000      34.28718303
  2 121 86      35.24884695       0.01000000      33.24884695
  2 121 87      34.00000000       0.01000000      32.00000000
  2 121 88      33.39271807       0.01000000      31.39271807
  2 120 88      32.86689503       0.01000000      30.86689503
  2 120 89      31.92443083       0.01000000      29.92443083
  2 120 90      31.05021740       0.01000000      29.05021740
  2 120 91      30.18690567       0.01000000      28.18690567
  2 119 91      29.64832417       0.01000000      27.64832417
  2 119 92      29.00000000       0.01000000      27.00000000
  2 118 92      28.59856674       0.01000000      26.59856674
  2 118 93      28.17777640       0.01000000      26.17777640
  2 118 94      27.73090371       0.01000000      25.73090371
  2 117 94      27.38918992       0.01000000      25.38918992
  2 117 95      26.80051106       0.01000000      24.80051106
  2 117 96      26.19341765       0.01000000      24.19341765
  2 117 97      25.59718171       0.01000000      23.59718171
  2 117 98      25.00000000       0.01000000      23.00000000
  2 117 99      23.72565182       0.01000000      21.72565182
  2 117 100      22.42344407       0.01000000      20.42344407
  2 117 101      21.07585030       0.01000000      19.07585030
  2 117 102      19.97224495       0.01000000      17.97224495
  2 118 102      19.26171667       0.01000000      17.26171667
  2 118 103      18.18788668       0.01000000      16.18788668
  2 118 104      17.23167629       0.01000000      15.23167629
  2 119 104      16.56063337       0.01000000      14.56063337
  2 119 105      15.36460312       0.01000000      13.36460312
  2 119 106      14.00000000       0.01000000      12.00000000
  2 119 107      12.45680221       0.01000000      10.45680221
  2 118 107      10.91440327       0.01000000       8.91440327
  2 117 107      10.00000000       0.01000000       8.00000000
  2 117 108       9.44722412       0.01000000       7.44722412
  2 117 109       8.83250936       0.01000000       6.83250936
  2 116 109       8.29165935       0.01000000       6.29165935
  2 116 110       7.70793215       0.01000000       5.70793215
  2 115 110       7.26301304       0.01000000       5.26301304
  2 115 111       6.60000000       0.01000000       4.60000000
  2 115 112       5.95447695       0.01000000       3.95447695
  2 115 113       5.57692616       0.01000000       3.57692616
  2 116 113       5.19121904       0.01000000       3.19121904
  2 116 114       4.53554122       0.01000000       2.53554122
  2 116 115       3.88714160       0.01000000       1.88714160
  2 116 116       3.20000000       0.01000000       1.20000000
  2 116 117       2.99094973       0.01000000       0.99094973
  2 115 117       2.83857992       0.01000000       0.83857992
  2 115 118       2.63507094       0.01000000       0.63507094
  2 114 118       2.43564870       0.01000000       0.43564870
  2 114 119       2.26759802       0.01000000       0.26759802
  2 113 119       2.06152083       0.01000000       0.06152083
  2 113 120       1.89225500       0.01000000      -0.10774500
  2 112 120       1.69037108       0.01000000      -0.30962892
  2 112 121       1.51936898       0.01000000      -0.48063102
  2 111 121       1.33430857       0.01000000      -0.66569143
  2 110 121       1.14648297       0.01000000      -0.85351703
  2 110 122       0.97434581       0.01000000      -1.02565419
  2 109 122       0.77175890       0.01000000      -1.22824110
  2 109 123       0.60000000       0.01000000      -1.40000000
  2 108 123       0.56738292       0.01000000      -1.43261708
  2 108 124       0.52143147       0.01000000      -1.47856853
  2 109 124       0.48409681       0.01000000      -1.51590319
  2 109 125       0.46103416       0.01000000      -1.53896584
  2 110 125       0.41998472       0.01000000      -1.58001528
  2 111 125       0.37700621       0.01000000      -1.62299379
  2 112 125       0.33453930       0.01000000      -1.66546070
  2 113 125       0.29201127       0.01000000      -1.70798873
  2 114 125       0.24928917       0.01000000      -1.75071083
  2 115 125       0.21607640       0.01000000      -1.78392360
  2 115 126       0.17963798       0.01000000      -1.82036202
  2 115 127       0.13375658       0.01000000      -1.86624342
  2 115 128       0.10000000       0.01000000      -1.90000000
END period  1

