BEGIN options
  SAVE_FLOWS
END options

BEGIN dimensions
  MAXBOUND  173
END dimensions

BEGIN period  1
  2 114 2     168.26725278       0.00500000     166.76725278
  2 114 3     163.13890908       0.00500000     161.63890908
  2 113 5     154.00000000       0.00500000     152.50000000
  2 113 6     152.37017676       0.00500000     150.87017676
  2 113 7     150.74476716       0.00500000     149.24476716
  2 113 8     149.11995384       0.00500000     147.61995384
  2 113 9     147.60751965       0.00500000     146.10751965
  2 112 9     146.07037853       0.00500000     144.57037853
  2 111 9     144.38528449       0.00500000     142.88528449
  2 110 10     142.21459227       0.00500000     140.71459227
  2 110 11     141.05811729       0.00500000     139.55811729
  4 109 11     139.88522267       0.00500000     138.38522267
  2 109 12     138.68417067       0.00500000     137.18417067
  4 108 12     137.82158160       0.00500000     136.32158160
  4 108 13     136.32956030       0.00500000     134.82956030
  2 108 14     134.68484227       0.00500000     133.18484227
  2 108 15     133.01912754       0.00500000     131.51912754
  2 108 16     131.38843742       0.00500000     129.88843742
  2 107 16     130.44557976       0.00500000     128.94557976
  2 107 17     129.47000000       0.00500000     127.97000000
  2 106 17     126.95674846       0.00500000     125.45674846
  2 105 17     125.05000000       0.00500000     123.55000000
  2 105 18     124.41967494       0.00500000     122.91967494
  2 104 18     123.54438654       0.00500000     122.04438654
  2 104 19     122.71392399       0.00500000     121.21392399
  2 103 19     121.96832476       0.00500000     120.46832476
  2 103 20     121.06965373       0.00500000     119.56965373
  4 102 20     120.26218686       0.00500000     118.76218686
  2 102 21     119.44000000       0.00500000     117.94000000
  4 101 21     117.17677316       0.00500000     115.67677316
  4 101 22     114.60000000       0.00500000     113.10000000
  2 101 23     113.27632535       0.00500000     111.77632535
  2 101 24     111.95628269       0.00500000     110.45628269
  2 101 25     110.61755312       0.00500000     109.11755312
  2 101 26     109.20000000       0.00500000     107.70000000
  2 101 27     107.68617677       0.00500000     106.18617677
  2 100 27     106.38322468       0.00500000     104.88322468
  2 100 28     104.14000000       0.00500000     102.64000000
  2 100 29     104.14000000       0.00500000     102.64000000
  2 99 29      99.00000000       0.00500000      97.50000000
  2 99 30      98.02487359       0.00500000      96.52487359
  2 99 31      96.82983178       0.00500000      95.32983178
  2 99 32      95.89345158       0.00500000      94.39345158
  2 100 32      95.42978543       0.00500000      93.92978543
  2 100 33      94.95343815       0.00500000      93.45343815
  2 100 34      94.00000000       0.00500000      92.50000000
  2 100 35      94.00000000       0.00500000      92.50000000
  2 100 36      94.00000000       0.00500000      92.50000000
  2 101 36      94.00000000       0.00500000      92.50000000
  2 101 37      94.00000000       0.00500000      92.50000000
  2 101 38      89.60000000       0.00500000      88.10000000
  2 101 39      89.30000000       0.00500000      87.80000000
  2 102 39      89.43369001       0.00500000      87.93369001
  2 102 40      89.60000000       0.00500000      88.10000000
  2 102 41      86.89287680       0.00500000      85.39287680
  2 102 42      84.11000000       0.00500000      82.61000000
  2 102 43      81.96918452       0.00500000      80.46918452
  2 103 43      80.69190651       0.00500000      79.19190651
  2 103 44      79.22000000       0.00500000      77.72000000
  2 103 45      79.18000000       0.00500000      77.68000000
  2 103 46      78.03649666       0.00500000      76.53649666
  2 104 46      76.97174705       0.00500000      75.47174705
  2 104 47      75.23557892       0.00500000      73.73557892
  2 104 48      74.03000000       0.00500000      72.53000000
  2 105 48      70.48000000       0.00500000      68.98000000
  2 105 49      70.00057146       0.00500000      68.50057146
  2 105 50      69.38000000       0.00500000      67.88000000
  2 105 51      66.39541558       0.00500000      64.89541558
  2 105 52      63.37000000       0.00500000      61.87000000
  2 105 53      63.86451097       0.00500000      62.36451097
  2 105 54      64.36000000       0.00500000      62.86000000
  2 105 55      64.50000000       0.00500000      63.00000000
  2 105 56      61.85579911       0.00500000      60.35579911
  2 105 57      60.00000000       0.00500000      58.50000000
  2 106 57      59.36000000       0.00500000      57.86000000
  2 106 58      59.36000000       0.00500000      57.86000000
  2 106 59      57.98744416       0.00500000      56.48744416
  2 105 59      57.02217398       0.00500000      55.52217398
  2 105 60      55.72153117       0.00500000      54.22153117
  2 105 61      54.00000000       0.00500000      52.50000000
  2 105 62      53.07668952       0.00500000      51.57668952
  2 105 63      52.16729034       0.00500000      50.66729034
  2 105 64      51.41387083       0.00500000      49.91387083
  2 104 64      50.96085029       0.00500000      49.46085029
  2 104 65      50.36175342       0.00500000      48.86175342
  2 104 66      49.44000000       0.00500000      47.94000000
  2 104 67      49.39484672       0.00500000      47.89484672
  2 104 68      49.36000000       0.00500000      47.86000000
  2 103 68      48.16485955       0.00500000      46.66485955
  2 103 69      46.41978734       0.00500000      44.91978734
  2 103 70      44.00000000       0.00500000      42.50000000
  2 103 71      44.00000000       0.00500000      42.50000000
  2 103 72      41.00000000       0.00500000      39.50000000
  2 103 73      39.16000000       0.00500000      37.66000000
  2 102 73      39.46000000       0.00500000      37.96000000
  2 102 74      39.67377121       0.00500000      38.17377121
  2 101 74      39.79953003       0.00500000      38.29953003
  2 101 75      40.00000000       0.00500000      38.50000000
  2 101 76      34.42000000       0.00500000      32.92000000
  2 101 77      34.70910515       0.00500000      33.20910515
  2 101 78      34.85830723       0.00500000      33.35830723
  2 100 78      35.00000000       0.00500000      33.50000000
  2 100 79      34.28000000       0.00500000      32.78000000
  2 100 80      32.51153438       0.00500000      31.01153438
  2 100 81      30.75477228       0.00500000      29.25477228
  2 100 82      29.00000000       0.00500000      27.50000000
  2 100 83      29.02942790       0.00500000      27.52942790
  2 100 84      29.04801170       0.00500000      27.54801170
  2 99 84      29.06281359       0.00500000      27.56281359
  2 99 85      29.08867154       0.00500000      27.58867154
  2 99 86      29.11906979       0.00500000      27.61906979
  2 99 87      29.15000000       0.00500000      27.65000000
  2 99 88      28.31709792       0.00500000      26.81709792
  2 98 88      27.59088337       0.00500000      26.09088337
  2 98 89      26.21822354       0.00500000      24.71822354
  2 98 90      24.71398407       0.00500000      23.21398407
  2 98 91      23.72904182       0.00500000      22.22904182
  2 97 91      22.95900603       0.00500000      21.45900603
  2 97 92      21.63924383       0.00500000      20.13924383
  2 97 93      20.43744293       0.00500000      18.93744293
  2 96 93      19.60179200       0.00500000      18.10179200
  2 96 94      18.44000000       0.00500000      16.94000000
  2 96 95      17.78185612       0.00500000      16.28185612
  2 96 96      17.38506511       0.00500000      15.88506511
  2 95 96      17.05378796       0.00500000      15.55378796
  2 95 97      16.46062806       0.00500000      14.96062806
  2 95 98      15.87846140       0.00500000      14.37846140
  2 94 98      15.54607788       0.00500000      14.04607788
  2 94 99      15.13967200       0.00500000      13.63967200
  2 94 100      14.47535816       0.00500000      12.97535816
  2 94 101      13.85132973       0.00500000      12.35132973
  2 93 101      13.52000000       0.00500000      12.02000000
  2 93 102      13.42809414       0.00500000      11.92809414
  2 94 102      13.12719869       0.00500000      11.62719869
  2 94 103      12.61973296       0.00500000      11.11973296
  2 93 103      12.31773882       0.00500000      10.81773882
  2 94 104      11.95174135       0.00500000      10.45174135
  2 94 105      11.33115770       0.00500000       9.83115770
  2 94 106      10.72532524       0.00500000       9.22532524
  2 94 107      10.13362555       0.00500000       8.63362555
  2 94 108       9.54134609       0.00500000       8.04134609
  2 94 109       8.94766174       0.00500000       7.44766174
  2 94 110       8.35646148       0.00500000       6.85646148
  2 94 111       7.75649593       0.00500000       6.25649593
  2 94 112       7.36740304       0.00500000       5.86740304
  4 95 112       7.07146780       0.00500000       5.57146780
  2 95 113       6.69000000       0.00500000       5.19000000
  2 94 113       6.47141565       0.00500000       4.97141565
  2 94 114       6.14400407       0.00500000       4.64400407
  2 94 115       5.68949386       0.00500000       4.18949386
  2 94 116       5.24079097       0.00500000       3.74079097
  2 94 117       4.86288589       0.00500000       3.36288589
  2 95 117       4.57897030       0.00500000       3.07897030
  2 95 118       4.24587335       0.00500000       2.74587335
  2 96 118       3.98095329       0.00500000       2.48095329
  2 96 119       3.69267509       0.00500000       2.19267509
  2 96 120       3.44817238       0.00500000       1.94817238
  2 95 120       3.17101969       0.00500000       1.67101969
  2 95 121       2.84893659       0.00500000       1.34893659
  2 94 121       2.51391514       0.00500000       1.01391514
  2 94 122       2.02828902       0.00500000       0.52828902
  2 94 123       1.58001388       0.00500000       0.08001388
  2 94 124       1.18259003       0.00500000      -0.31740997
  2 95 124       0.92275546       0.00500000      -0.57724454
  2 95 125       0.58000000       0.00500000      -0.92000000
  2 96 125       0.53080169       0.00500000      -0.96919831
  2 96 126       0.48311403       0.00500000      -1.01688597
  2 96 127       0.39880444       0.00500000      -1.10119556
  2 95 127       0.35496981       0.00500000      -1.14503019
  2 95 128       0.30645339       0.00500000      -1.19354661
  2 95 129       0.23969267       0.00500000      -1.26030733
  2 94 129       0.18814509       0.00500000      -1.31185491
  2 93 130       0.10000000       0.00500000      -1.40000000
END period  1

