BEGIN options
  DIGITS  10
  PRINT_INPUT
END options

BEGIN continuous  FILEOUT  heads_pc.csv
  3_50_94  HEAD  4 51 95
  3_57_83  HEAD  4 58 84
  3_62_126  HEAD  4 63 127
  3_63_94  HEAD  4 64 95
  3_63_99  HEAD  4 64 100
  3_64_92  HEAD  4 65 93
  3_64_96  HEAD  4 65 97
  3_66_128  HEAD  4 67 129
  3_69_104  HEAD  4 70 105
  3_69_118  HEAD  4 70 119
  3_71_72  HEAD  4 72 73
  3_75_124  HEAD  4 76 125
  3_79_66  HEAD  4 80 67
  3_79_77  HEAD  4 80 78
  3_82_115  HEAD  4 83 116
  3_83_67  HEAD  4 84 68
  3_84_94  HEAD  4 85 95
  3_84_125  HEAD  4 85 126
  3_91_101  HEAD  4 92 102
  3_95_128  HEAD  4 96 129
  3_98_43  HEAD  4 99 44
  3_98_91  HEAD  4 99 92
  3_99_118  HEAD  4 100 119
  3_101_59  HEAD  4 102 60
  3_102_22  HEAD  4 103 23
  3_102_28  HEAD  4 103 29
  3_103_32  HEAD  4 104 33
  3_104_74  HEAD  4 105 75
  3_108_42  HEAD  4 109 43
  3_109_12  HEAD  4 110 13
  3_111_42  HEAD  4 112 43
  3_112_61  HEAD  4 113 62
  3_113_102  HEAD  4 114 103
  3_114_114  HEAD  4 115 115
  3_116_1  HEAD  4 117 2
  3_116_59  HEAD  4 117 60
  3_119_43  HEAD  4 120 44
  3_120_123  HEAD  4 121 124
  3_122_94  HEAD  4 123 95
  3_125_75  HEAD  4 126 76
  3_129_86  HEAD  4 130 87
  3_129_100  HEAD  4 130 101
  3_132_50  HEAD  4 133 51
  3_136_70  HEAD  4 137 71
  3_140_74  HEAD  4 141 75
  3_140_89  HEAD  4 141 90
  3_141_114  HEAD  4 142 115
  3_148_98  HEAD  4 149 99
END continuous  FILEOUT  heads_pc.csv

BEGIN continuous  FILEOUT  heads_q.csv
  1_56_126  HEAD  2 57 127
  1_63_117  HEAD  2 64 118
  1_64_104  HEAD  2 65 105
  1_64_111  HEAD  2 65 112
  1_67_110  HEAD  2 68 111
  1_67_119  HEAD  2 68 120
  1_68_71  HEAD  2 69 72
  1_69_105  HEAD  2 70 106
  1_69_116  HEAD  2 70 117
  1_70_73  HEAD  2 71 74
  1_73_83  HEAD  2 74 84
  1_74_115  HEAD  2 75 116
  1_76_89  HEAD  2 77 90
  1_80_103  HEAD  2 81 104
  1_83_95  HEAD  2 84 96
  1_83_106  HEAD  2 84 107
  1_83_124  HEAD  2 84 125
  1_84_127  HEAD  2 85 128
  1_88_110  HEAD  2 89 111
  1_92_93  HEAD  2 93 94
  1_93_114  HEAD  2 94 115
  1_94_95  HEAD  2 95 96
  1_94_103  HEAD  2 95 104
  1_94_115  HEAD  2 95 116
  1_95_75  HEAD  2 96 76
  1_95_81  HEAD  2 96 82
  1_95_95  HEAD  2 96 96
  1_99_44  HEAD  2 100 45
  1_100_51  HEAD  2 101 52
  1_100_75  HEAD  2 101 76
  1_101_53  HEAD  2 102 54
  1_102_24  HEAD  2 103 25
  1_102_57  HEAD  2 103 58
  1_103_32  HEAD  2 104 33
  1_104_45  HEAD  2 105 46
  1_106_17  HEAD  2 107 18
  1_106_58  HEAD  2 107 59
  1_106_71  HEAD  2 107 72
  1_108_24  HEAD  2 109 25
  1_108_43  HEAD  2 109 44
  1_110_22  HEAD  2 111 23
  1_112_16  HEAD  2 113 17
  1_112_61  HEAD  2 113 62
  1_114_6  HEAD  2 115 7
  1_114_13  HEAD  2 115 14
  1_115_66  HEAD  2 116 67
  1_116_60  HEAD  2 117 61
  1_116_100  HEAD  2 117 101
  1_120_112  HEAD  2 121 113
  1_121_82  HEAD  2 122 83
  1_121_104  HEAD  2 122 105
  1_131_65  HEAD  2 132 66
  1_135_119  HEAD  2 136 120
  1_137_73  HEAD  2 138 74
  1_138_116  HEAD  2 139 117
  1_139_122  HEAD  2 140 123
  1_142_116  HEAD  2 143 117
  1_143_107  HEAD  2 144 108
  1_146_106  HEAD  2 147 107
  1_147_91  HEAD  2 148 92
  1_147_97  HEAD  2 148 98
  1_149_129  HEAD  2 150 130
  1_152_94  HEAD  2 153 95
  1_153_111  HEAD  2 154 112
  1_153_113  HEAD  2 154 114
  1_153_124  HEAD  2 154 125
  1_154_126  HEAD  2 155 127
  1_155_123  HEAD  2 156 124
  1_155_131  HEAD  2 156 132
  1_156_96  HEAD  2 157 97
  1_156_99  HEAD  2 157 100
  1_165_101  HEAD  2 166 102
  1_167_59  HEAD  2 168 60
  1_167_66  HEAD  2 168 67
END continuous  FILEOUT  heads_q.csv

BEGIN continuous  FILEOUT  heads_map_q.csv
  Qmap_1_155_97  HEAD  2 156 98
  Qmap_1_115_67  HEAD  2 116 68
  Qmap_1_59_76  HEAD  2 60 77
  Qmap_1_62_80  HEAD  2 63 81
  Qmap_1_152_85  HEAD  2 153 86
  Qmap_1_107_49  HEAD  2 108 50
  Qmap_1_107_50  HEAD  2 108 51
  Qmap_1_70_71  HEAD  2 71 72
  Qmap_1_50_94  HEAD  2 51 95
  Qmap_1_56_79  HEAD  2 57 80
  Qmap_1_43_118  HEAD  2 44 119
  Qmap_1_146_102  HEAD  2 147 103
  Qmap_1_107_48  HEAD  2 108 49
  Qmap_1_107_17  HEAD  2 108 18
  Qmap_1_147_124  HEAD  2 148 125
  Qmap_1_56_100  HEAD  2 57 101
  Qmap_1_145_125  HEAD  2 146 126
  Qmap_1_27_124  HEAD  2 28 125
  Qmap_1_71_96  HEAD  2 72 97
  Qmap_1_112_112  HEAD  2 113 113
  Qmap_1_105_37  HEAD  2 106 38
  Qmap_1_101_26  HEAD  2 102 27
  Qmap_1_52_99  HEAD  2 53 100
  Qmap_1_147_118  HEAD  2 148 119
  Qmap_1_92_124  HEAD  2 93 125
  Qmap_1_85_108  HEAD  2 86 109
  Qmap_1_149_125  HEAD  2 150 126
  Qmap_1_116_62  HEAD  2 117 63
  Qmap_1_48_112  HEAD  2 49 113
  Qmap_1_109_25  HEAD  2 110 26
  Qmap_1_66_114  HEAD  2 67 115
  Qmap_1_134_124  HEAD  2 135 125
  Qmap_1_86_107  HEAD  2 87 108
  Qmap_1_113_20  HEAD  2 114 21
  Qmap_1_116_105  HEAD  2 117 106
  Qmap_1_162_101  HEAD  2 163 102
  Qmap_1_175_57  HEAD  2 176 58
  Qmap_1_96_98  HEAD  2 97 99
  Qmap_1_113_112  HEAD  2 114 113
  Qmap_1_128_125  HEAD  2 129 126
  Qmap_1_108_11  HEAD  2 109 12
  Qmap_1_98_47  HEAD  2 99 48
  Qmap_1_138_107  HEAD  2 139 108
  Qmap_1_103_79  HEAD  2 104 80
  Qmap_1_151_110  HEAD  2 152 111
  Qmap_1_101_31  HEAD  2 102 32
  Qmap_1_97_59  HEAD  2 98 60
  Qmap_1_92_113  HEAD  2 93 114
  Qmap_1_53_114  HEAD  2 54 115
  Qmap_1_67_114  HEAD  2 68 115
  Qmap_1_28_131  HEAD  2 29 132
  Qmap_1_98_33  HEAD  2 99 34
  Qmap_1_111_102  HEAD  2 112 103
  Qmap_1_87_104  HEAD  2 88 105
  Qmap_1_120_44  HEAD  2 121 45
  Qmap_1_148_113  HEAD  2 149 114
  Qmap_1_34_120  HEAD  2 35 121
  Qmap_1_62_105  HEAD  2 63 106
  Qmap_1_162_107  HEAD  2 163 108
  Qmap_1_144_117  HEAD  2 145 118
  Qmap_1_121_64  HEAD  2 122 65
  Qmap_1_94_84  HEAD  2 95 85
  Qmap_1_44_102  HEAD  2 45 103
  Qmap_1_136_114  HEAD  2 137 115
  Qmap_1_43_118  HEAD  2 44 119
  Qmap_1_117_109  HEAD  2 118 110
  Qmap_1_78_101  HEAD  2 79 102
  Qmap_1_105_60  HEAD  2 106 61
  Qmap_1_148_118  HEAD  2 149 119
  Qmap_1_172_49  HEAD  2 173 50
  Qmap_1_147_120  HEAD  2 148 121
  Qmap_1_58_115  HEAD  2 59 116
  Qmap_1_25_121  HEAD  2 26 122
  Qmap_1_93_90  HEAD  2 94 91
  Qmap_1_160_97  HEAD  2 161 98
  Qmap_1_48_99  HEAD  2 49 100
  Qmap_1_69_108  HEAD  2 70 109
  Qmap_1_112_95  HEAD  2 113 96
  Qmap_1_110_74  HEAD  2 111 75
  Qmap_1_117_107  HEAD  2 118 108
  Qmap_1_126_119  HEAD  2 127 120
  Qmap_1_64_78  HEAD  2 65 79
  Qmap_1_144_100  HEAD  2 145 101
  Qmap_1_32_120  HEAD  2 33 121
  Qmap_1_52_116  HEAD  2 53 117
  Qmap_1_37_130  HEAD  2 38 131
  Qmap_1_125_106  HEAD  2 126 107
  Qmap_1_78_96  HEAD  2 79 97
  Qmap_1_64_82  HEAD  2 65 83
  Qmap_1_44_98  HEAD  2 45 99
  Qmap_1_70_101  HEAD  2 71 102
  Qmap_1_58_76  HEAD  2 59 77
  Qmap_1_106_125  HEAD  2 107 126
  Qmap_1_35_120  HEAD  2 36 121
  Qmap_1_169_62  HEAD  2 170 63
  Qmap_1_160_119  HEAD  2 161 120
  Qmap_1_31_127  HEAD  2 32 128
  Qmap_1_89_119  HEAD  2 90 120
  Qmap_1_158_131  HEAD  2 159 132
  Qmap_1_101_54  HEAD  2 102 55
END continuous  FILEOUT  heads_map_q.csv

