pcf
* control data
             restart      regularization
       189       322         3       184         5         0
         8         2              single               point         1         0         0          noobsreref
   2.000000E+01  -3.000000E+00   3.000000E-01   1.000000E-02        -7       999          lamforgive        noderforgive
   1.000000E+01   1.000000E+01   1.000000E-03         0         0
   1.000000E-01         1   1.100000E+00               noaui          nosenreuse        noboundscale
         0   1.000000E-02         8         3   1.000000E-02         3   0.000000E+00         1  -1.000000E+00
         0         0         0         0             jcosave          verboserec          jcosaveitn          reisaveitn          parsaveitn        noparsaverun
* singular value decomposition
         1
  10000000    1.000000E-06
1
* parameter groups
 kp_inst:0               relative              1.0000000000E-02       0.0  switch                2.0000000000E+00       parabolic              1.0000000000E-05       5.0000000000E-01       smaller              
 irr__multiplier         relative              1.0000000000E-02       0.0  switch                2.0000000000E+00       parabolic              1.0000000000E-05       5.0000000000E-01       smaller              
 cond                    relative              1.0000000000E-02       0.0  switch                2.0000000000E+00       parabolic              1.0000000000E-05       5.0000000000E-01       smaller              
* parameter data
            kp_inst:0_i:12_j:124   log                    factor                1.0000000000E+02      5.0000000000E-02      1.0000000000E+02       kp_inst:0             1.0000000000E+00      0.0000000000E+00       1          
            kp_inst:0_i:20_j:132   log                    factor                1.0000000000E+02      5.0000000000E-02      1.0000000000E+02       kp_inst:0             1.0000000000E+00      0.0000000000E+00       1          
            kp_inst:0_i:28_j:124   log                    factor                1.0000000000E+02      5.0000000000E-02      1.0000000000E+02       kp_inst:0             1.0000000000E+00      0.0000000000E+00       1          
            kp_inst:0_i:28_j:132   log                    factor                4.9999999501E-02      5.0000000000E-02      1.0000000000E+02       kp_inst:0             1.0000000000E+00      0.0000000000E+00       1          
            kp_inst:0_i:36_j:116   log                    factor                1.0000000000E+02      5.0000000000E-02      1.0000000000E+02       kp_inst:0             1.0000000000E+00      0.0000000000E+00       1          
            kp_inst:0_i:36_j:124   log                    factor                4.9999999501E-02      5.0000000000E-02      1.0000000000E+02       kp_inst:0             1.0000000000E+00      0.0000000000E+00       1          
            kp_inst:0_i:36_j:132   log                    factor                4.9999999501E-02      5.0000000000E-02      1.0000000000E+02       kp_inst:0             1.0000000000E+00      0.0000000000E+00       1          
            kp_inst:0_i:44_j:100   log                    factor                1.0000000000E+02      5.0000000000E-02      1.0000000000E+02       kp_inst:0             1.0000000000E+00      0.0000000000E+00       1          
            kp_inst:0_i:44_j:108   log                    factor                4.9999999501E-02      5.0000000000E-02      1.0000000000E+02       kp_inst:0             1.0000000000E+00      0.0000000000E+00       1          
            kp_inst:0_i:44_j:116   log                    factor                1.0000000000E+02      5.0000000000E-02      1.0000000000E+02       kp_inst:0             1.0000000000E+00      0.0000000000E+00       1          
            kp_inst:0_i:44_j:124   log                    factor                1.0000000000E+02      5.0000000000E-02      1.0000000000E+02       kp_inst:0             1.0000000000E+00      0.0000000000E+00       1          
            kp_inst:0_i:44_j:132   log                    factor                4.9999999501E-02      5.0000000000E-02      1.0000000000E+02       kp_inst:0             1.0000000000E+00      0.0000000000E+00       1          
            kp_inst:0_i:52_j:92    log                    factor                2.0717817351E+00      5.0000000000E-02      1.0000000000E+02       kp_inst:0             1.0000000000E+00      0.0000000000E+00       1          
            kp_inst:0_i:52_j:100   log                    factor                1.7469480890E+01      5.0000000000E-02      1.0000000000E+02       kp_inst:0             1.0000000000E+00      0.0000000000E+00       1          
            kp_inst:0_i:52_j:108   log                    factor                1.0000000000E+02      5.0000000000E-02      1.0000000000E+02       kp_inst:0             1.0000000000E+00      0.0000000000E+00       1          
            kp_inst:0_i:52_j:116   log                    factor                1.0000000000E+02      5.0000000000E-02      1.0000000000E+02       kp_inst:0             1.0000000000E+00      0.0000000000E+00       1          
            kp_inst:0_i:52_j:124   log                    factor                1.0000000000E+02      5.0000000000E-02      1.0000000000E+02       kp_inst:0             1.0000000000E+00      0.0000000000E+00       1          
            kp_inst:0_i:52_j:132   log                    factor                1.0000000000E+02      5.0000000000E-02      1.0000000000E+02       kp_inst:0             1.0000000000E+00      0.0000000000E+00       1          
            kp_inst:0_i:60_j:76    log                    factor                1.0000000000E+02      5.0000000000E-02      1.0000000000E+02       kp_inst:0             1.0000000000E+00      0.0000000000E+00       1          
            kp_inst:0_i:60_j:84    log                    factor                8.7899418095E+00      5.0000000000E-02      1.0000000000E+02       kp_inst:0             1.0000000000E+00      0.0000000000E+00       1          
            kp_inst:0_i:60_j:92    log                    factor                2.2929257946E+01      5.0000000000E-02      1.0000000000E+02       kp_inst:0             1.0000000000E+00      0.0000000000E+00       1          
            kp_inst:0_i:60_j:100   log                    factor                3.6439297854E+01      5.0000000000E-02      1.0000000000E+02       kp_inst:0             1.0000000000E+00      0.0000000000E+00       1          
            kp_inst:0_i:60_j:108   log                    factor                8.3729789620E+01      5.0000000000E-02      1.0000000000E+02       kp_inst:0             1.0000000000E+00      0.0000000000E+00       1          
            kp_inst:0_i:60_j:116   log                    factor                1.0000000000E+02      5.0000000000E-02      1.0000000000E+02       kp_inst:0             1.0000000000E+00      0.0000000000E+00       1          
            kp_inst:0_i:60_j:124   log                    factor                1.2255140652E+00      5.0000000000E-02      1.0000000000E+02       kp_inst:0             1.0000000000E+00      0.0000000000E+00       1          
            kp_inst:0_i:60_j:132   log                    factor                4.9999999501E-02      5.0000000000E-02      1.0000000000E+02       kp_inst:0             1.0000000000E+00      0.0000000000E+00       1          
            kp_inst:0_i:68_j:76    log                    factor                3.6689770907E+00      5.0000000000E-02      1.0000000000E+02       kp_inst:0             1.0000000000E+00      0.0000000000E+00       1          
            kp_inst:0_i:68_j:84    log                    factor                9.2571435849E+00      5.0000000000E-02      1.0000000000E+02       kp_inst:0             1.0000000000E+00      0.0000000000E+00       1          
            kp_inst:0_i:68_j:92    log                    factor                1.5082036934E+01      5.0000000000E-02      1.0000000000E+02       kp_inst:0             1.0000000000E+00      0.0000000000E+00       1          
            kp_inst:0_i:68_j:100   log                    factor                1.0000000000E+02      5.0000000000E-02      1.0000000000E+02       kp_inst:0             1.0000000000E+00      0.0000000000E+00       1          
            kp_inst:0_i:68_j:108   log                    factor                1.0000000000E+02      5.0000000000E-02      1.0000000000E+02       kp_inst:0             1.0000000000E+00      0.0000000000E+00       1          
            kp_inst:0_i:68_j:116   log                    factor                1.0000000000E+02      5.0000000000E-02      1.0000000000E+02       kp_inst:0             1.0000000000E+00      0.0000000000E+00       1          
            kp_inst:0_i:68_j:124   log                    factor                1.0000000000E+02      5.0000000000E-02      1.0000000000E+02       kp_inst:0             1.0000000000E+00      0.0000000000E+00       1          
            kp_inst:0_i:68_j:132   log                    factor                4.9999999501E-02      5.0000000000E-02      1.0000000000E+02       kp_inst:0             1.0000000000E+00      0.0000000000E+00       1          
            kp_inst:0_i:76_j:68    log                    factor                9.0501650582E-01      5.0000000000E-02      1.0000000000E+02       kp_inst:0             1.0000000000E+00      0.0000000000E+00       1          
            kp_inst:0_i:76_j:76    log                    factor                5.7582564138E+00      5.0000000000E-02      1.0000000000E+02       kp_inst:0             1.0000000000E+00      0.0000000000E+00       1          
            kp_inst:0_i:76_j:84    log                    factor                5.8767335455E+00      5.0000000000E-02      1.0000000000E+02       kp_inst:0             1.0000000000E+00      0.0000000000E+00       1          
            kp_inst:0_i:76_j:92    log                    factor                1.0000000000E+02      5.0000000000E-02      1.0000000000E+02       kp_inst:0             1.0000000000E+00      0.0000000000E+00       1          
            kp_inst:0_i:76_j:100   log                    factor                2.6916029772E+00      5.0000000000E-02      1.0000000000E+02       kp_inst:0             1.0000000000E+00      0.0000000000E+00       1          
            kp_inst:0_i:76_j:108   log                    factor                5.0026140673E+00      5.0000000000E-02      1.0000000000E+02       kp_inst:0             1.0000000000E+00      0.0000000000E+00       1          
            kp_inst:0_i:76_j:116   log                    factor                1.0000000000E+02      5.0000000000E-02      1.0000000000E+02       kp_inst:0             1.0000000000E+00      0.0000000000E+00       1          
            kp_inst:0_i:76_j:124   log                    factor                1.9546499827E-01      5.0000000000E-02      1.0000000000E+02       kp_inst:0             1.0000000000E+00      0.0000000000E+00       1          
            kp_inst:0_i:76_j:132   log                    factor                1.0000000000E+02      5.0000000000E-02      1.0000000000E+02       kp_inst:0             1.0000000000E+00      0.0000000000E+00       1          
            kp_inst:0_i:84_j:68    log                    factor                9.0944533587E-01      5.0000000000E-02      1.0000000000E+02       kp_inst:0             1.0000000000E+00      0.0000000000E+00       1          
            kp_inst:0_i:84_j:76    log                    factor                1.0526160797E+01      5.0000000000E-02      1.0000000000E+02       kp_inst:0             1.0000000000E+00      0.0000000000E+00       1          
            kp_inst:0_i:84_j:84    log                    factor                2.2658961421E+01      5.0000000000E-02      1.0000000000E+02       kp_inst:0             1.0000000000E+00      0.0000000000E+00       1          
            kp_inst:0_i:84_j:92    log                    factor                6.8442678927E+00      5.0000000000E-02      1.0000000000E+02       kp_inst:0             1.0000000000E+00      0.0000000000E+00       1          
            kp_inst:0_i:84_j:100   log                    factor                6.2139535138E+00      5.0000000000E-02      1.0000000000E+02       kp_inst:0             1.0000000000E+00      0.0000000000E+00       1          
            kp_inst:0_i:84_j:108   log                    factor                2.8691945683E+01      5.0000000000E-02      1.0000000000E+02       kp_inst:0             1.0000000000E+00      0.0000000000E+00       1          
            kp_inst:0_i:84_j:116   log                    factor                1.9565276959E-01      5.0000000000E-02      1.0000000000E+02       kp_inst:0             1.0000000000E+00      0.0000000000E+00       1          
            kp_inst:0_i:84_j:124   log                    factor                3.7588067666E+00      5.0000000000E-02      1.0000000000E+02       kp_inst:0             1.0000000000E+00      0.0000000000E+00       1          
            kp_inst:0_i:84_j:132   log                    factor                4.9999999501E-02      5.0000000000E-02      1.0000000000E+02       kp_inst:0             1.0000000000E+00      0.0000000000E+00       1          
            kp_inst:0_i:92_j:44    log                    factor                1.3854664069E+00      5.0000000000E-02      1.0000000000E+02       kp_inst:0             1.0000000000E+00      0.0000000000E+00       1          
            kp_inst:0_i:92_j:52    log                    factor                2.7257875276E+00      5.0000000000E-02      1.0000000000E+02       kp_inst:0             1.0000000000E+00      0.0000000000E+00       1          
            kp_inst:0_i:92_j:60    log                    factor                1.4158915829E+01      5.0000000000E-02      1.0000000000E+02       kp_inst:0             1.0000000000E+00      0.0000000000E+00       1          
            kp_inst:0_i:92_j:68    log                    factor                3.4815288633E+01      5.0000000000E-02      1.0000000000E+02       kp_inst:0             1.0000000000E+00      0.0000000000E+00       1          
            kp_inst:0_i:92_j:76    log                    factor                5.7849285590E+00      5.0000000000E-02      1.0000000000E+02       kp_inst:0             1.0000000000E+00      0.0000000000E+00       1          
            kp_inst:0_i:92_j:84    log                    factor                1.8086977570E+00      5.0000000000E-02      1.0000000000E+02       kp_inst:0             1.0000000000E+00      0.0000000000E+00       1          
            kp_inst:0_i:92_j:92    log                    factor                9.9786088703E-02      5.0000000000E-02      1.0000000000E+02       kp_inst:0             1.0000000000E+00      0.0000000000E+00       1          
            kp_inst:0_i:92_j:100   log                    factor                1.5818671233E+01      5.0000000000E-02      1.0000000000E+02       kp_inst:0             1.0000000000E+00      0.0000000000E+00       1          
            kp_inst:0_i:92_j:108   log                    factor                1.1949754966E-01      5.0000000000E-02      1.0000000000E+02       kp_inst:0             1.0000000000E+00      0.0000000000E+00       1          
            kp_inst:0_i:92_j:116   log                    factor                1.0000000000E+02      5.0000000000E-02      1.0000000000E+02       kp_inst:0             1.0000000000E+00      0.0000000000E+00       1          
            kp_inst:0_i:92_j:124   log                    factor                4.9999999501E-02      5.0000000000E-02      1.0000000000E+02       kp_inst:0             1.0000000000E+00      0.0000000000E+00       1          
            kp_inst:0_i:92_j:132   log                    factor                4.9999999501E-02      5.0000000000E-02      1.0000000000E+02       kp_inst:0             1.0000000000E+00      0.0000000000E+00       1          
            kp_inst:0_i:100_j:28   log                    factor                4.9326920145E+00      5.0000000000E-02      1.0000000000E+02       kp_inst:0             1.0000000000E+00      0.0000000000E+00       1          
            kp_inst:0_i:100_j:36   log                    factor                5.2138436064E+00      5.0000000000E-02      1.0000000000E+02       kp_inst:0             1.0000000000E+00      0.0000000000E+00       1          
            kp_inst:0_i:100_j:44   log                    factor                2.5215698323E+00      5.0000000000E-02      1.0000000000E+02       kp_inst:0             1.0000000000E+00      0.0000000000E+00       1          
            kp_inst:0_i:100_j:52   log                    factor                2.6319219132E+00      5.0000000000E-02      1.0000000000E+02       kp_inst:0             1.0000000000E+00      0.0000000000E+00       1          
            kp_inst:0_i:100_j:60   log                    factor                4.7596278824E+00      5.0000000000E-02      1.0000000000E+02       kp_inst:0             1.0000000000E+00      0.0000000000E+00       1          
            kp_inst:0_i:100_j:68   log                    factor                4.9999999501E-02      5.0000000000E-02      1.0000000000E+02       kp_inst:0             1.0000000000E+00      0.0000000000E+00       1          
            kp_inst:0_i:100_j:76   log                    factor                1.8738723371E+00      5.0000000000E-02      1.0000000000E+02       kp_inst:0             1.0000000000E+00      0.0000000000E+00       1          
            kp_inst:0_i:100_j:84   log                    factor                7.4723464596E-01      5.0000000000E-02      1.0000000000E+02       kp_inst:0             1.0000000000E+00      0.0000000000E+00       1          
            kp_inst:0_i:100_j:92   log                    factor                1.0000000000E+02      5.0000000000E-02      1.0000000000E+02       kp_inst:0             1.0000000000E+00      0.0000000000E+00       1          
           kp_inst:0_i:100_j:100   log                    factor                2.9403971965E-01      5.0000000000E-02      1.0000000000E+02       kp_inst:0             1.0000000000E+00      0.0000000000E+00       1          
           kp_inst:0_i:100_j:108   log                    factor                1.0000000000E+02      5.0000000000E-02      1.0000000000E+02       kp_inst:0             1.0000000000E+00      0.0000000000E+00       1          
           kp_inst:0_i:100_j:116   log                    factor                5.0074658942E-01      5.0000000000E-02      1.0000000000E+02       kp_inst:0             1.0000000000E+00      0.0000000000E+00       1          
           kp_inst:0_i:100_j:124   log                    factor                6.7138247387E+00      5.0000000000E-02      1.0000000000E+02       kp_inst:0             1.0000000000E+00      0.0000000000E+00       1          
           kp_inst:0_i:100_j:132   log                    factor                4.9999999501E-02      5.0000000000E-02      1.0000000000E+02       kp_inst:0             1.0000000000E+00      0.0000000000E+00       1          
            kp_inst:0_i:108_j:12   log                    factor                1.4199530994E+00      5.0000000000E-02      1.0000000000E+02       kp_inst:0             1.0000000000E+00      0.0000000000E+00       1          
            kp_inst:0_i:108_j:20   log                    factor                1.2082867137E+01      5.0000000000E-02      1.0000000000E+02       kp_inst:0             1.0000000000E+00      0.0000000000E+00       1          
            kp_inst:0_i:108_j:28   log                    factor                6.8230255881E+00      5.0000000000E-02      1.0000000000E+02       kp_inst:0             1.0000000000E+00      0.0000000000E+00       1          
            kp_inst:0_i:108_j:36   log                    factor                1.9956298897E+01      5.0000000000E-02      1.0000000000E+02       kp_inst:0             1.0000000000E+00      0.0000000000E+00       1          
            kp_inst:0_i:108_j:44   log                    factor                8.3470131943E-01      5.0000000000E-02      1.0000000000E+02       kp_inst:0             1.0000000000E+00      0.0000000000E+00       1          
            kp_inst:0_i:108_j:52   log                    factor                5.6107510576E-01      5.0000000000E-02      1.0000000000E+02       kp_inst:0             1.0000000000E+00      0.0000000000E+00       1          
            kp_inst:0_i:108_j:60   log                    factor                2.1295115503E+01      5.0000000000E-02      1.0000000000E+02       kp_inst:0             1.0000000000E+00      0.0000000000E+00       1          
            kp_inst:0_i:108_j:68   log                    factor                4.4361375119E-01      5.0000000000E-02      1.0000000000E+02       kp_inst:0             1.0000000000E+00      0.0000000000E+00       1          
            kp_inst:0_i:108_j:76   log                    factor                2.0651423838E+01      5.0000000000E-02      1.0000000000E+02       kp_inst:0             1.0000000000E+00      0.0000000000E+00       1          
            kp_inst:0_i:108_j:84   log                    factor                4.0236945057E+00      5.0000000000E-02      1.0000000000E+02       kp_inst:0             1.0000000000E+00      0.0000000000E+00       1          
            kp_inst:0_i:108_j:92   log                    factor                1.0000000000E+02      5.0000000000E-02      1.0000000000E+02       kp_inst:0             1.0000000000E+00      0.0000000000E+00       1          
           kp_inst:0_i:108_j:100   log                    factor                1.0000000000E+02      5.0000000000E-02      1.0000000000E+02       kp_inst:0             1.0000000000E+00      0.0000000000E+00       1          
           kp_inst:0_i:108_j:108   log                    factor                1.0000000000E+02      5.0000000000E-02      1.0000000000E+02       kp_inst:0             1.0000000000E+00      0.0000000000E+00       1          
           kp_inst:0_i:108_j:116   log                    factor                1.0000000000E+02      5.0000000000E-02      1.0000000000E+02       kp_inst:0             1.0000000000E+00      0.0000000000E+00       1          
           kp_inst:0_i:108_j:124   log                    factor                4.9999999501E-02      5.0000000000E-02      1.0000000000E+02       kp_inst:0             1.0000000000E+00      0.0000000000E+00       1          
           kp_inst:0_i:108_j:132   log                    factor                4.9999999501E-02      5.0000000000E-02      1.0000000000E+02       kp_inst:0             1.0000000000E+00      0.0000000000E+00       1          
            kp_inst:0_i:116_j:4    log                    factor                1.2680372161E+00      5.0000000000E-02      1.0000000000E+02       kp_inst:0             1.0000000000E+00      0.0000000000E+00       1          
            kp_inst:0_i:116_j:36   log                    factor                2.5082741362E+00      5.0000000000E-02      1.0000000000E+02       kp_inst:0             1.0000000000E+00      0.0000000000E+00       1          
            kp_inst:0_i:116_j:44   log                    factor                4.8449578149E+01      5.0000000000E-02      1.0000000000E+02       kp_inst:0             1.0000000000E+00      0.0000000000E+00       1          
            kp_inst:0_i:116_j:52   log                    factor                4.4902446077E+01      5.0000000000E-02      1.0000000000E+02       kp_inst:0             1.0000000000E+00      0.0000000000E+00       1          
            kp_inst:0_i:116_j:60   log                    factor                8.0946858742E+00      5.0000000000E-02      1.0000000000E+02       kp_inst:0             1.0000000000E+00      0.0000000000E+00       1          
            kp_inst:0_i:116_j:68   log                    factor                1.0000000000E+02      5.0000000000E-02      1.0000000000E+02       kp_inst:0             1.0000000000E+00      0.0000000000E+00       1          
            kp_inst:0_i:116_j:76   log                    factor                2.2893384373E+01      5.0000000000E-02      1.0000000000E+02       kp_inst:0             1.0000000000E+00      0.0000000000E+00       1          
            kp_inst:0_i:116_j:84   log                    factor                2.8112534408E+01      5.0000000000E-02      1.0000000000E+02       kp_inst:0             1.0000000000E+00      0.0000000000E+00       1          
            kp_inst:0_i:116_j:92   log                    factor                7.8312484071E+00      5.0000000000E-02      1.0000000000E+02       kp_inst:0             1.0000000000E+00      0.0000000000E+00       1          
           kp_inst:0_i:116_j:100   log                    factor                3.7435789794E-01      5.0000000000E-02      1.0000000000E+02       kp_inst:0             1.0000000000E+00      0.0000000000E+00       1          
           kp_inst:0_i:116_j:108   log                    factor                4.9999999501E-02      5.0000000000E-02      1.0000000000E+02       kp_inst:0             1.0000000000E+00      0.0000000000E+00       1          
           kp_inst:0_i:116_j:116   log                    factor                4.9999999501E-02      5.0000000000E-02      1.0000000000E+02       kp_inst:0             1.0000000000E+00      0.0000000000E+00       1          
           kp_inst:0_i:116_j:124   log                    factor                1.4331247622E+00      5.0000000000E-02      1.0000000000E+02       kp_inst:0             1.0000000000E+00      0.0000000000E+00       1          
           kp_inst:0_i:116_j:132   log                    factor                1.0000000000E+02      5.0000000000E-02      1.0000000000E+02       kp_inst:0             1.0000000000E+00      0.0000000000E+00       1          
            kp_inst:0_i:124_j:52   log                    factor                4.1264444212E+00      5.0000000000E-02      1.0000000000E+02       kp_inst:0             1.0000000000E+00      0.0000000000E+00       1          
            kp_inst:0_i:124_j:60   log                    factor                1.0000000000E+02      5.0000000000E-02      1.0000000000E+02       kp_inst:0             1.0000000000E+00      0.0000000000E+00       1          
            kp_inst:0_i:124_j:68   log                    factor                1.6791403581E+00      5.0000000000E-02      1.0000000000E+02       kp_inst:0             1.0000000000E+00      0.0000000000E+00       1          
            kp_inst:0_i:124_j:76   log                    factor                3.6465905317E+00      5.0000000000E-02      1.0000000000E+02       kp_inst:0             1.0000000000E+00      0.0000000000E+00       1          
            kp_inst:0_i:124_j:84   log                    factor                6.9688962665E+00      5.0000000000E-02      1.0000000000E+02       kp_inst:0             1.0000000000E+00      0.0000000000E+00       1          
            kp_inst:0_i:124_j:92   log                    factor                5.8013090230E+00      5.0000000000E-02      1.0000000000E+02       kp_inst:0             1.0000000000E+00      0.0000000000E+00       1          
           kp_inst:0_i:124_j:100   log                    factor                1.0000000000E+02      5.0000000000E-02      1.0000000000E+02       kp_inst:0             1.0000000000E+00      0.0000000000E+00       1          
           kp_inst:0_i:124_j:108   log                    factor                1.0000000000E+02      5.0000000000E-02      1.0000000000E+02       kp_inst:0             1.0000000000E+00      0.0000000000E+00       1          
           kp_inst:0_i:124_j:116   log                    factor                1.0000000000E+02      5.0000000000E-02      1.0000000000E+02       kp_inst:0             1.0000000000E+00      0.0000000000E+00       1          
           kp_inst:0_i:124_j:124   log                    factor                4.1485850693E-01      5.0000000000E-02      1.0000000000E+02       kp_inst:0             1.0000000000E+00      0.0000000000E+00       1          
           kp_inst:0_i:124_j:132   log                    factor                1.0000000000E+02      5.0000000000E-02      1.0000000000E+02       kp_inst:0             1.0000000000E+00      0.0000000000E+00       1          
            kp_inst:0_i:132_j:52   log                    factor                1.9336550425E+00      5.0000000000E-02      1.0000000000E+02       kp_inst:0             1.0000000000E+00      0.0000000000E+00       1          
            kp_inst:0_i:132_j:60   log                    factor                1.7441787861E+00      5.0000000000E-02      1.0000000000E+02       kp_inst:0             1.0000000000E+00      0.0000000000E+00       1          
            kp_inst:0_i:132_j:68   log                    factor                3.9638206879E-01      5.0000000000E-02      1.0000000000E+02       kp_inst:0             1.0000000000E+00      0.0000000000E+00       1          
            kp_inst:0_i:132_j:76   log                    factor                4.9999999501E-02      5.0000000000E-02      1.0000000000E+02       kp_inst:0             1.0000000000E+00      0.0000000000E+00       1          
            kp_inst:0_i:132_j:84   log                    factor                9.5439026328E-01      5.0000000000E-02      1.0000000000E+02       kp_inst:0             1.0000000000E+00      0.0000000000E+00       1          
            kp_inst:0_i:132_j:92   log                    factor                2.7465025084E+01      5.0000000000E-02      1.0000000000E+02       kp_inst:0             1.0000000000E+00      0.0000000000E+00       1          