BEGIN options
  DIGITS  10
  PRINT_INPUT
END options

BEGIN continuous  FILEOUT  heads_pc.csv
  3_50_94  HEAD  4 51 95
  3_57_83  HEAD  4 58 84
  3_62_126  HEAD  4 63 127
  3_63_94  HEAD  4 64 95
  3_63_99  HEAD  4 64 100
  3_64_92  HEAD  4 65 93
  3_64_96  HEAD  4 65 97
  3_66_128  HEAD  4 67 129
  3_69_104  HEAD  4 70 105
  3_69_118  HEAD  4 70 119
  3_71_72  HEAD  4 72 73
  3_75_124  HEAD  4 76 125
  3_79_66  HEAD  4 80 67
  3_79_77  HEAD  4 80 78
  3_82_115  HEAD  4 83 116
  3_83_67  HEAD  4 84 68
  3_84_94  HEAD  4 85 95
  3_84_125  HEAD  4 85 126
  3_91_101  HEAD  4 92 102
  3_95_128  HEAD  4 96 129
  3_98_43  HEAD  4 99 44
  3_98_91  HEAD  4 99 92
  3_99_118  HEAD  4 100 119
  3_101_59  HEAD  4 102 60
  3_102_22  HEAD  4 103 23
  3_102_28  HEAD  4 103 29
  3_103_32  HEAD  4 104 33
  3_104_74  HEAD  4 105 75
  3_108_42  HEAD  4 109 43
  3_109_12  HEAD  4 110 13
  3_111_42  HEAD  4 112 43
  3_112_61  HEAD  4 113 62
  3_113_102  HEAD  4 114 103
  3_114_114  HEAD  4 115 115
  3_116_1  HEAD  4 117 2
  3_116_59  HEAD  4 117 60
  3_119_43  HEAD  4 120 44
  3_120_123  HEAD  4 121 124
  3_122_94  HEAD  4 123 95
  3_125_75  HEAD  4 126 76
  3_129_86  HEAD  4 130 87
  3_129_100  HEAD  4 130 101
  3_132_50  HEAD  4 133 51
  3_136_70  HEAD  4 137 71
  3_140_74  HEAD  4 141 75
  3_140_89  HEAD  4 141 90
  3_141_114  HEAD  4 142 115
  3_148_98  HEAD  4 149 99
END continuous  FILEOUT  heads_pc.csv

BEGIN continuous  FILEOUT  heads_q.csv
  1_56_126  HEAD  2 57 127
  1_63_117  HEAD  2 64 118
  1_64_104  HEAD  2 65 105
  1_64_111  HEAD  2 65 112
  1_67_110  HEAD  2 68 111
  1_67_119  HEAD  2 68 120
  1_68_71  HEAD  2 69 72
  1_69_105  HEAD  2 70 106
  1_69_116  HEAD  2 70 117
  1_70_73  HEAD  2 71 74
  1_73_83  HEAD  2 74 84
  1_74_115  HEAD  2 75 116
  1_76_89  HEAD  2 77 90
  1_80_103  HEAD  2 81 104
  1_83_95  HEAD  2 84 96
  1_83_106  HEAD  2 84 107
  1_83_124  HEAD  2 84 125
  1_84_127  HEAD  2 85 128
  1_88_110  HEAD  2 89 111
  1_92_93  HEAD  2 93 94
  1_93_114  HEAD  2 94 115
  1_94_95  HEAD  2 95 96
  1_94_103  HEAD  2 95 104
  1_94_115  HEAD  2 95 116
  1_95_75  HEAD  2 96 76
  1_95_81  HEAD  2 96 82
  1_95_95  HEAD  2 96 96
  1_99_44  HEAD  2 100 45
  1_100_51  HEAD  2 101 52
  1_100_75  HEAD  2 101 76
  1_101_53  HEAD  2 102 54
  1_102_24  HEAD  2 103 25
  1_102_57  HEAD  2 103 58
  1_103_32  HEAD  2 104 33
  1_104_45  HEAD  2 105 46
  1_106_17  HEAD  2 107 18
  1_106_58  HEAD  2 107 59
  1_106_71  HEAD  2 107 72
  1_108_24  HEAD  2 109 25
  1_108_43  HEAD  2 109 44
  1_110_22  HEAD  2 111 23
  1_112_16  HEAD  2 113 17
  1_112_61  HEAD  2 113 62
  1_114_6  HEAD  2 115 7
  1_114_13  HEAD  2 115 14
  1_115_66  HEAD  2 116 67
  1_116_60  HEAD  2 117 61
  1_116_100  HEAD  2 117 101
  1_120_112  HEAD  2 121 113
  1_121_82  HEAD  2 122 83
  1_121_104  HEAD  2 122 105
  1_131_65  HEAD  2 132 66
  1_135_119  HEAD  2 136 120
  1_137_73  HEAD  2 138 74
  1_138_116  HEAD  2 139 117
  1_139_122  HEAD  2 140 123
  1_142_116  HEAD  2 143 117
  1_143_107  HEAD  2 144 108
  1_146_106  HEAD  2 147 107
  1_147_91  HEAD  2 148 92
  1_147_97  HEAD  2 148 98
  1_149_129  HEAD  2 150 130
  1_152_94  HEAD  2 153 95
  1_153_111  HEAD  2 154 112
  1_153_113  HEAD  2 154 114
  1_153_124  HEAD  2 154 125
  1_154_126  HEAD  2 155 127
  1_155_123  HEAD  2 156 124
  1_155_131  HEAD  2 156 132
  1_156_96  HEAD  2 157 97
  1_156_99  HEAD  2 157 100
  1_165_101  HEAD  2 166 102
  1_167_59  HEAD  2 168 60
  1_167_66  HEAD  2 168 67
END continuous  FILEOUT  heads_q.csv

BEGIN continuous  FILEOUT  heads_map_q.csv
  Qmap_1_45_124  HEAD  2 46 125
  Qmap_1_170_54  HEAD  2 171 55
  Qmap_1_97_71  HEAD  2 98 72
  Qmap_1_35_130  HEAD  2 36 131
  Qmap_1_151_91  HEAD  2 152 92
  Qmap_1_167_55  HEAD  2 168 56
  Qmap_1_79_93  HEAD  2 80 94
  Qmap_1_139_120  HEAD  2 140 121
  Qmap_1_112_42  HEAD  2 113 43
  Qmap_1_60_86  HEAD  2 61 87
  Qmap_1_83_116  HEAD  2 84 117
  Qmap_1_48_117  HEAD  2 49 118
  Qmap_1_121_104  HEAD  2 122 105
  Qmap_1_51_120  HEAD  2 52 121
  Qmap_1_128_81  HEAD  2 129 82
  Qmap_1_130_113  HEAD  2 131 114
  Qmap_1_168_66  HEAD  2 169 67
  Qmap_1_25_128  HEAD  2 26 129
  Qmap_1_117_34  HEAD  2 118 35
  Qmap_1_164_93  HEAD  2 165 94
  Qmap_1_63_82  HEAD  2 64 83
  Qmap_1_88_107  HEAD  2 89 108
  Qmap_1_112_10  HEAD  2 113 11
  Qmap_1_174_47  HEAD  2 175 48
  Qmap_1_142_112  HEAD  2 143 113
  Qmap_1_42_121  HEAD  2 43 122
  Qmap_1_64_108  HEAD  2 65 109
  Qmap_1_116_90  HEAD  2 117 91
  Qmap_1_81_93  HEAD  2 82 94
  Qmap_1_43_126  HEAD  2 44 127
  Qmap_1_159_122  HEAD  2 160 123
  Qmap_1_26_131  HEAD  2 27 132
  Qmap_1_102_20  HEAD  2 103 21
  Qmap_1_111_55  HEAD  2 112 56
  Qmap_1_149_114  HEAD  2 150 115
  Qmap_1_39_125  HEAD  2 40 126
  Qmap_1_123_127  HEAD  2 124 128
  Qmap_1_32_123  HEAD  2 33 124
  Qmap_1_130_71  HEAD  2 131 72
  Qmap_1_116_122  HEAD  2 117 123
  Qmap_1_101_125  HEAD  2 102 126
  Qmap_1_49_96  HEAD  2 50 97
  Qmap_1_130_115  HEAD  2 131 116
  Qmap_1_173_52  HEAD  2 174 53
  Qmap_1_86_88  HEAD  2 87 89
  Qmap_1_92_103  HEAD  2 93 104
  Qmap_1_160_112  HEAD  2 161 113
  Qmap_1_58_89  HEAD  2 59 90
  Qmap_1_36_126  HEAD  2 37 127
  Qmap_1_110_104  HEAD  2 111 105
  Qmap_1_168_63  HEAD  2 169 64
  Qmap_1_114_7  HEAD  2 115 8
  Qmap_1_132_112  HEAD  2 133 113
  Qmap_1_86_94  HEAD  2 87 95
  Qmap_1_171_52  HEAD  2 172 53
  Qmap_1_153_113  HEAD  2 154 114
  Qmap_1_29_120  HEAD  2 30 121
  Qmap_1_112_28  HEAD  2 113 29
  Qmap_1_158_89  HEAD  2 159 90
  Qmap_1_71_76  HEAD  2 72 77
  Qmap_1_32_118  HEAD  2 33 119
  Qmap_1_86_101  HEAD  2 87 102
  Qmap_1_41_121  HEAD  2 42 122
  Qmap_1_100_30  HEAD  2 101 31
  Qmap_1_123_83  HEAD  2 124 84
  Qmap_1_67_88  HEAD  2 68 89
  Qmap_1_150_130  HEAD  2 151 131
  Qmap_1_74_92  HEAD  2 75 93
  Qmap_1_87_120  HEAD  2 88 121
  Qmap_1_154_86  HEAD  2 155 87
  Qmap_1_127_82  HEAD  2 128 83
  Qmap_1_69_81  HEAD  2 70 82
  Qmap_1_142_129  HEAD  2 143 130
  Qmap_1_62_115  HEAD  2 63 116
  Qmap_1_75_102  HEAD  2 76 103
  Qmap_1_148_130  HEAD  2 149 131
  Qmap_1_81_105  HEAD  2 82 106
  Qmap_1_112_107  HEAD  2 113 108
  Qmap_1_114_41  HEAD  2 115 42
  Qmap_1_48_97  HEAD  2 49 98
  Qmap_1_157_111  HEAD  2 158 112
  Qmap_1_88_101  HEAD  2 89 102
  Qmap_1_52_109  HEAD  2 53 110
  Qmap_1_151_101  HEAD  2 152 102
  Qmap_1_63_108  HEAD  2 64 109
  Qmap_1_111_38  HEAD  2 112 39
  Qmap_1_101_22  HEAD  2 102 23
  Qmap_1_96_85  HEAD  2 97 86
  Qmap_1_85_120  HEAD  2 86 121
  Qmap_1_115_59  HEAD  2 116 60
  Qmap_1_49_94  HEAD  2 50 95
  Qmap_1_73_88  HEAD  2 74 89
  Qmap_1_117_52  HEAD  2 118 53
  Qmap_1_88_110  HEAD  2 89 111
  Qmap_1_42_128  HEAD  2 43 129
  Qmap_1_152_99  HEAD  2 153 100
  Qmap_1_147_103  HEAD  2 148 104
  Qmap_1_98_92  HEAD  2 99 93
  Qmap_1_138_112  HEAD  2 139 113
  Qmap_1_80_123  HEAD  2 81 124
END continuous  FILEOUT  heads_map_q.csv

BEGIN continuous  FILEOUT  heads_map_p.csv
  Pmap_1_45_124  HEAD  4 46 125
  Pmap_1_97_71  HEAD  4 98 72
  Pmap_1_35_130  HEAD  4 36 131
  Pmap_1_102_117  HEAD  4 103 118
  Pmap_1_154_78  HEAD  4 155 79
  Pmap_1_91_62  HEAD  4 92 63
  Pmap_1_96_40  HEAD  4 97 41
  Pmap_1_79_93  HEAD  4 80 94
  Pmap_1_92_60  HEAD  4 93 61
  Pmap_1_139_120  HEAD  4 140 121
  Pmap_1_112_42  HEAD  4 113 43
  Pmap_1_60_86  HEAD  4 61 87
  Pmap_1_83_116  HEAD  4 84 117
  Pmap_1_48_117  HEAD  4 49 118
  Pmap_1_121_104  HEAD  4 122 105
  Pmap_1_51_120  HEAD  4 52 121
  Pmap_1_94_53  HEAD  4 95 54
  Pmap_1_128_81  HEAD  4 129 82
  Pmap_1_102_124  HEAD  4 103 125
  Pmap_1_130_113  HEAD  4 131 114
  Pmap_1_104_112  HEAD  4 105 113
  Pmap_1_91_81  HEAD  4 92 82
  Pmap_1_146_85  HEAD  4 147 86
  Pmap_1_164_93  HEAD  4 165 94
  Pmap_1_63_82  HEAD  4 64 83
  Pmap_1_88_107  HEAD  4 89 108
  Pmap_1_89_79  HEAD  4 90 80
  Pmap_1_112_10  HEAD  4 113 11
  Pmap_1_85_86  HEAD  4 86 87
  Pmap_1_142_112  HEAD  4 143 113
  Pmap_1_129_97  HEAD  4 130 98
  Pmap_1_42_121  HEAD  4 43 122
  Pmap_1_100_94  HEAD  4 101 95
  Pmap_1_64_108  HEAD  4 65 109
  Pmap_1_116_90  HEAD  4 117 91
  Pmap_1_81_93  HEAD  4 82 94
  Pmap_1_43_126  HEAD  4 44 127
  Pmap_1_92_50  HEAD  4 93 51
  Pmap_1_118_84  HEAD  4 119 85
  Pmap_1_159_122  HEAD  4 160 123
  Pmap_1_114_74  HEAD  4 115 75
  Pmap_1_26_131  HEAD  4 27 132
  Pmap_1_102_20  HEAD  4 103 21
  Pmap_1_111_55  HEAD  4 112 56
  Pmap_1_149_114  HEAD  4 150 115
  Pmap_1_98_102  HEAD  4 99 103
  Pmap_1_130_48  HEAD  4 131 49
  Pmap_1_39_125  HEAD  4 40 126
  Pmap_1_123_127  HEAD  4 124 128
  Pmap_1_32_123  HEAD  4 33 124
  Pmap_1_130_71  HEAD  4 131 72
  Pmap_1_116_122  HEAD  4 117 123
  Pmap_1_101_125  HEAD  4 102 126
  Pmap_1_49_96  HEAD  4 50 97
  Pmap_1_102_109  HEAD  4 103 110
  Pmap_1_130_115  HEAD  4 131 116
  Pmap_1_97_36  HEAD  4 98 37
  Pmap_1_113_77  HEAD  4 114 78
  Pmap_1_86_88  HEAD  4 87 89
  Pmap_1_126_69  HEAD  4 127 70
  Pmap_1_92_103  HEAD  4 93 104
  Pmap_1_160_112  HEAD  4 161 113
  Pmap_1_126_95  HEAD  4 127 96
  Pmap_1_157_61  HEAD  4 158 62
  Pmap_1_92_45  HEAD  4 93 46
  Pmap_1_133_66  HEAD  4 134 67
  Pmap_1_58_89  HEAD  4 59 90
  Pmap_1_159_58  HEAD  4 160 59
  Pmap_1_36_126  HEAD  4 37 127
  Pmap_1_110_104  HEAD  4 111 105
  Pmap_1_98_113  HEAD  4 99 114
  Pmap_1_136_69  HEAD  4 137 70
  Pmap_1_114_7  HEAD  4 115 8
  Pmap_1_132_112  HEAD  4 133 113
  Pmap_1_86_94  HEAD  4 87 95
  Pmap_1_148_55  HEAD  4 149 56
  Pmap_1_150_77  HEAD  4 151 78
  Pmap_1_153_113  HEAD  4 154 114
  Pmap_1_118_70  HEAD  4 119 71
  Pmap_1_29_120  HEAD  4 30 121
  Pmap_1_127_68  HEAD  4 128 69
  Pmap_1_112_28  HEAD  4 113 29
  Pmap_1_158_89  HEAD  4 159 90
  Pmap_1_71_76  HEAD  4 72 77
  Pmap_1_86_101  HEAD  4 87 102
  Pmap_1_41_121  HEAD  4 42 122
  Pmap_1_100_30  HEAD  4 101 31
  Pmap_1_123_83  HEAD  4 124 84
  Pmap_1_67_88  HEAD  4 68 89
  Pmap_1_150_130  HEAD  4 151 131
  Pmap_1_155_74  HEAD  4 156 75
  Pmap_1_74_92  HEAD  4 75 93
  Pmap_1_136_57  HEAD  4 137 58
  Pmap_1_87_120  HEAD  4 88 121
  Pmap_1_127_82  HEAD  4 128 83
  Pmap_1_132_48  HEAD  4 133 49
  Pmap_1_69_81  HEAD  4 70 82
  Pmap_1_142_129  HEAD  4 143 130
  Pmap_1_152_79  HEAD  4 153 80
  Pmap_1_116_78  HEAD  4 117 79
  Pmap_1_62_115  HEAD  4 63 116
  Pmap_1_75_102  HEAD  4 76 103
  Pmap_1_148_130  HEAD  4 149 131
  Pmap_1_81_105  HEAD  4 82 106
  Pmap_1_112_107  HEAD  4 113 108
  Pmap_1_114_41  HEAD  4 115 42
  Pmap_1_166_53  HEAD  4 167 54
  Pmap_1_136_84  HEAD  4 137 85
  Pmap_1_48_97  HEAD  4 49 98
  Pmap_1_80_69  HEAD  4 81 70
  Pmap_1_86_70  HEAD  4 87 71
  Pmap_1_157_111  HEAD  4 158 112
  Pmap_1_79_74  HEAD  4 80 75
  Pmap_1_88_101  HEAD  4 89 102
  Pmap_1_121_79  HEAD  4 122 80
  Pmap_1_52_109  HEAD  4 53 110
  Pmap_1_151_101  HEAD  4 152 102
  Pmap_1_63_108  HEAD  4 64 109
  Pmap_1_111_38  HEAD  4 112 39
  Pmap_1_101_22  HEAD  4 102 23
  Pmap_1_96_85  HEAD  4 97 86
  Pmap_1_89_48  HEAD  4 90 49
  Pmap_1_103_124  HEAD  4 104 125
  Pmap_1_85_120  HEAD  4 86 121
  Pmap_1_115_59  HEAD  4 116 60
  Pmap_1_73_88  HEAD  4 74 89
  Pmap_1_117_52  HEAD  4 118 53
  Pmap_1_88_110  HEAD  4 89 111
  Pmap_1_42_128  HEAD  4 43 129
  Pmap_1_107_107  HEAD  4 108 108
  Pmap_1_152_99  HEAD  4 153 100
  Pmap_1_147_103  HEAD  4 148 104
  Pmap_1_98_92  HEAD  4 99 93
  Pmap_1_138_112  HEAD  4 139 113
  Pmap_1_80_123  HEAD  4 81 124
  Pmap_1_70_80  HEAD  4 71 81
  Pmap_1_134_91  HEAD  4 135 92
  Pmap_1_142_130  HEAD  4 143 131
  Pmap_1_94_77  HEAD  4 95 78
  Pmap_1_125_67  HEAD  4 126 68
  Pmap_1_135_74  HEAD  4 136 75
  Pmap_1_139_53  HEAD  4 140 54
  Pmap_1_118_50  HEAD  4 119 51
  Pmap_1_99_101  HEAD  4 100 102
  Pmap_1_59_100  HEAD  4 60 101
  Pmap_1_128_62  HEAD  4 129 63
  Pmap_1_53_96  HEAD  4 54 97
  Pmap_1_163_103  HEAD  4 164 104
  Pmap_1_137_117  HEAD  4 138 118
  Pmap_1_100_37  HEAD  4 101 38
END continuous  FILEOUT  heads_map_p.csv

