BEGIN options
  SAVE_FLOWS
END options

BEGIN dimensions
  MAXBOUND  644
END dimensions

BEGIN period  1
  1 24 130       0.00000000       1.00000000
  1 24 131       0.00000000       1.00000000
  1 25 130       0.00000000       1.00000000
  1 25 131       0.00000000       1.00000000
  1 25 132       0.00000000       1.00000000
  1 26 121       0.00000000       1.00000000
  1 26 122       0.00000000       1.00000000
  1 26 129       0.00000000       1.00000000
  1 26 130       0.00000000       1.00000000
  1 26 131       0.00000000       1.00000000
  1 26 132       0.00000000       1.00000000
  1 27 119       0.00000000       1.00000000
  1 27 120       0.00000000       1.00000000
  1 27 121       0.00000000       1.00000000
  1 27 122       0.00000000       1.00000000
  1 27 123       0.00000000       1.00000000
  1 27 124       0.00000000       1.00000000
  1 27 125       0.00000000       1.00000000
  1 27 126       0.00000000       1.00000000
  1 27 127       0.00000000       1.00000000
  1 27 128       0.00000000       1.00000000
  1 27 129       0.00000000       1.00000000
  1 27 130       0.00000000       1.00000000
  1 27 131       0.00000000       1.00000000
  1 28 119       0.00000000       1.00000000
  1 28 120       0.00000000       1.00000000
  1 28 121       0.00000000       1.00000000
  1 28 122       0.00000000       1.00000000
  1 28 123       0.00000000       1.00000000
  1 28 124       0.00000000       1.00000000
  1 28 125       0.00000000       1.00000000
  1 28 126       0.00000000       1.00000000
  1 28 127       0.00000000       1.00000000
  1 28 128       0.00000000       1.00000000
  1 28 129       0.00000000       1.00000000
  1 28 130       0.00000000       1.00000000
  1 28 131       0.00000000       1.00000000
  1 29 118       0.00000000       1.00000000
  1 29 119       0.00000000       1.00000000
  1 29 120       0.00000000       1.00000000
  1 29 121       0.00000000       1.00000000
  1 29 122       0.00000000       1.00000000
  1 29 123       0.00000000       1.00000000
  1 29 124       0.00000000       1.00000000
  1 29 125       0.00000000       1.00000000
  1 29 126       0.00000000       1.00000000
  1 29 127       0.00000000       1.00000000
  1 29 128       0.00000000       1.00000000
  1 29 129       0.00000000       1.00000000
  1 29 130       0.00000000       1.00000000
  1 29 131       0.00000000       1.00000000
  1 29 132       0.00000000       1.00000000
  1 30 118       0.00000000       1.00000000
  1 30 119       0.00000000       1.00000000
  1 30 120       0.00000000       1.00000000
  1 30 121       0.00000000       1.00000000
  1 30 122       0.00000000       1.00000000
  1 30 123       0.00000000       1.00000000
  1 30 124       0.00000000       1.00000000
  1 30 125       0.00000000       1.00000000
  1 30 126       0.00000000       1.00000000
  1 30 127       0.00000000       1.00000000
  1 30 128       0.00000000       1.00000000
  1 30 129       0.00000000       1.00000000
  1 30 130       0.00000000       1.00000000
  1 30 131       0.00000000       1.00000000
  1 31 118       0.00000000       1.00000000
  1 31 119       0.00000000       1.00000000
  1 31 120       0.00000000       1.00000000
  1 31 121       0.00000000       1.00000000
  1 31 122       0.00000000       1.00000000
  1 31 123       0.00000000       1.00000000
  1 31 124       0.00000000       1.00000000
  1 31 125       0.00000000       1.00000000
  1 31 126       0.00000000       1.00000000
  1 31 127       0.00000000       1.00000000
  1 31 128       0.00000000       1.00000000
  1 31 129       0.00000000       1.00000000
  1 31 130       0.00000000       1.00000000
  1 31 131       0.00000000       1.00000000
  1 32 118       0.00000000       1.00000000
  1 32 119       0.00000000       1.00000000
  1 32 120       0.00000000       1.00000000
  1 32 121       0.00000000       1.00000000
  1 32 122       0.00000000       1.00000000
  1 32 123       0.00000000       1.00000000
  1 32 124       0.00000000       1.00000000
  1 32 125       0.00000000       1.00000000
  1 32 126       0.00000000       1.00000000
  1 32 127       0.00000000       1.00000000
  1 32 128       0.00000000       1.00000000
  1 32 129       0.00000000       1.00000000
  1 32 130       0.00000000       1.00000000
  1 33 119       0.00000000       1.00000000
  1 33 120       0.00000000       1.00000000
  1 33 121       0.00000000       1.00000000
  1 33 122       0.00000000       1.00000000
  1 33 123       0.00000000       1.00000000
  1 33 124       0.00000000       1.00000000
  1 33 125       0.00000000       1.00000000
  1 33 126       0.00000000       1.00000000
  1 33 127       0.00000000       1.00000000
  1 33 128       0.00000000       1.00000000
  1 33 129       0.00000000       1.00000000
  1 33 130       0.00000000       1.00000000
  1 34 119       0.00000000       1.00000000
  1 34 120       0.00000000       1.00000000
  1 34 121       0.00000000       1.00000000
  1 34 122       0.00000000       1.00000000
  1 34 123       0.00000000       1.00000000
  1 34 124       0.00000000       1.00000000
  1 34 125       0.00000000       1.00000000
  1 34 126       0.00000000       1.00000000
  1 34 127       0.00000000       1.00000000
  1 34 128       0.00000000       1.00000000
  1 34 129       0.00000000       1.00000000
  1 35 118       0.00000000       1.00000000
  1 35 119       0.00000000       1.00000000
  1 35 120       0.00000000       1.00000000
  1 35 121       0.00000000       1.00000000
  1 35 122       0.00000000       1.00000000
  1 35 123       0.00000000       1.00000000
  1 35 124       0.00000000       1.00000000
  1 35 125       0.00000000       1.00000000
  1 35 126       0.00000000       1.00000000
  1 35 127       0.00000000       1.00000000
  1 35 128       0.00000000       1.00000000
  1 36 117       0.00000000       1.00000000
  1 36 118       0.00000000       1.00000000
  1 36 119       0.00000000       1.00000000
  1 36 120       0.00000000       1.00000000
  1 36 121       0.00000000       1.00000000
  1 36 122       0.00000000       1.00000000
  1 36 123       0.00000000       1.00000000
  1 36 124       0.00000000       1.00000000
  1 36 125       0.00000000       1.00000000
  1 36 126       0.00000000       1.00000000
  1 36 127       0.00000000       1.00000000
  1 36 128       0.00000000       1.00000000
  1 37 117       0.00000000       1.00000000
  1 37 118       0.00000000       1.00000000
  1 37 119       0.00000000       1.00000000
  1 37 120       0.00000000       1.00000000
  1 37 121       0.00000000       1.00000000
  1 37 122       0.00000000       1.00000000
  1 37 123       0.00000000       1.00000000
  1 37 124       0.00000000       1.00000000
  1 37 125       0.00000000       1.00000000
  1 37 126       0.00000000       1.00000000
  1 37 127       0.00000000       1.00000000
  1 38 116       0.00000000       1.00000000
  1 38 117       0.00000000       1.00000000
  1 38 118       0.00000000       1.00000000
  1 38 119       0.00000000       1.00000000
  1 38 120       0.00000000       1.00000000
  1 38 121       0.00000000       1.00000000
  1 38 122       0.00000000       1.00000000
  1 38 123       0.00000000       1.00000000
  1 38 124       0.00000000       1.00000000
  1 38 125       0.00000000       1.00000000
  1 38 126       0.00000000       1.00000000
  1 38 127       0.00000000       1.00000000
  1 39 114       0.00000000       1.00000000
  1 39 115       0.00000000       1.00000000
  1 39 116       0.00000000       1.00000000
  1 39 117       0.00000000       1.00000000
  1 39 118       0.00000000       1.00000000
  1 39 119       0.00000000       1.00000000
  1 39 120       0.00000000       1.00000000
  1 39 121       0.00000000       1.00000000
  1 39 122       0.00000000       1.00000000
  1 39 123       0.00000000       1.00000000
  1 39 124       0.00000000       1.00000000
  1 39 125       0.00000000       1.00000000
  1 39 126       0.00000000       1.00000000
  1 40 112       0.00000000       1.00000000
  1 40 113       0.00000000       1.00000000
  1 40 114       0.00000000       1.00000000
  1 40 115       0.00000000       1.00000000
  1 40 116       0.00000000       1.00000000
  1 40 117       0.00000000       1.00000000
  1 40 118       0.00000000       1.00000000
  1 40 119       0.00000000       1.00000000
  1 40 120       0.00000000       1.00000000
  1 40 121       0.00000000       1.00000000
  1 40 122       0.00000000       1.00000000
  1 40 123       0.00000000       1.00000000
  1 40 124       0.00000000       1.00000000
  1 40 125       0.00000000       1.00000000
  1 40 126       0.00000000       1.00000000
  1 41 111       0.00000000       1.00000000
  1 41 112       0.00000000       1.00000000
  1 41 113       0.00000000       1.00000000
  1 41 114       0.00000000       1.00000000
  1 41 115       0.00000000       1.00000000
  1 41 116       0.00000000       1.00000000
  1 41 117       0.00000000       1.00000000
  1 41 118       0.00000000       1.00000000
  1 41 119       0.00000000       1.00000000
  1 41 120       0.00000000       1.00000000
  1 41 121       0.00000000       1.00000000
  1 41 122       0.00000000       1.00000000
  1 41 123       0.00000000       1.00000000
  1 41 124       0.00000000       1.00000000
  1 41 125       0.00000000       1.00000000
  1 41 126       0.00000000       1.00000000
  1 42 109       0.00000000       1.00000000
  1 42 110       0.00000000       1.00000000
  1 42 111       0.00000000       1.00000000
  1 42 112       0.00000000       1.00000000
  1 42 113       0.00000000       1.00000000
  1 42 114       0.00000000       1.00000000
  1 42 115       0.00000000       1.00000000
  1 42 116       0.00000000       1.00000000
  1 42 117       0.00000000       1.00000000
  1 42 118       0.00000000       1.00000000
  1 42 119       0.00000000       1.00000000
  1 42 120       0.00000000       1.00000000
  1 42 121       0.00000000       1.00000000
  1 42 122       0.00000000       1.00000000
  1 42 123       0.00000000       1.00000000
  1 42 124       0.00000000       1.00000000
  1 42 126       0.00000000       1.00000000
  1 42 127       0.00000000       1.00000000
  1 43 109       0.00000000       1.00000000
  1 43 110       0.00000000       1.00000000
  1 43 111       0.00000000       1.00000000
  1 43 112       0.00000000       1.00000000
  1 43 113       0.00000000       1.00000000
  1 43 114       0.00000000       1.00000000
  1 43 115       0.00000000       1.00000000
  1 43 116       0.00000000       1.00000000
  1 43 117       0.00000000       1.00000000
  1 43 118       0.00000000       1.00000000
  1 43 119       0.00000000       1.00000000
  1 43 120       0.00000000       1.00000000
  1 43 121       0.00000000       1.00000000
  1 43 122       0.00000000       1.00000000
  1 43 123       0.00000000       1.00000000
  1 43 124       0.00000000       1.00000000
  1 43 125       0.00000000       1.00000000
  1 43 126       0.00000000       1.00000000
  1 43 127       0.00000000       1.00000000
  1 44 108       0.00000000       1.00000000
  1 44 109       0.00000000       1.00000000
  1 44 110       0.00000000       1.00000000
  1 44 111       0.00000000       1.00000000
  1 44 112       0.00000000       1.00000000
  1 44 113       0.00000000       1.00000000
  1 44 114       0.00000000       1.00000000
  1 44 115       0.00000000       1.00000000
  1 44 116       0.00000000       1.00000000
  1 44 117       0.00000000       1.00000000
  1 44 118       0.00000000       1.00000000
  1 44 119       0.00000000       1.00000000
  1 44 120       0.00000000       1.00000000
  1 44 121       0.00000000       1.00000000
  1 44 122       0.00000000       1.00000000
  1 44 123       0.00000000       1.00000000
  1 44 125       0.00000000       1.00000000
  1 44 126       0.00000000       1.00000000
  1 44 127       0.00000000       1.00000000
  1 44 128       0.00000000       1.00000000
  1 45 107       0.00000000       1.00000000
  1 45 108       0.00000000       1.00000000
  1 45 109       0.00000000       1.00000000
  1 45 110       0.00000000       1.00000000
  1 45 111       0.00000000       1.00000000
  1 45 112       0.00000000       1.00000000
  1 45 113       0.00000000       1.00000000
  1 45 114       0.00000000       1.00000000
  1 45 115       0.00000000       1.00000000
  1 45 116       0.00000000       1.00000000
  1 45 117       0.00000000       1.00000000
  1 45 118       0.00000000       1.00000000
  1 45 119       0.00000000       1.00000000
  1 45 120       0.00000000       1.00000000
  1 45 121       0.00000000       1.00000000
  1 45 122       0.00000000       1.00000000
  1 45 123       0.00000000       1.00000000
  1 45 124       0.00000000       1.00000000
  1 45 125       0.00000000       1.00000000
  1 45 126       0.00000000       1.00000000
  1 45 128       0.00000000       1.00000000
  1 46 107       0.00000000       1.00000000
  1 46 108       0.00000000       1.00000000
  1 46 109       0.00000000       1.00000000
  1 46 110       0.00000000       1.00000000
  1 46 111       0.00000000       1.00000000
  1 46 112       0.00000000       1.00000000
  1 46 113       0.00000000       1.00000000
  1 46 114       0.00000000       1.00000000
  1 46 115       0.00000000       1.00000000
  1 46 116       0.00000000       1.00000000
  1 46 117       0.00000000       1.00000000
  1 46 118       0.00000000       1.00000000
  1 46 119       0.00000000       1.00000000
  1 46 120       0.00000000       1.00000000
  1 46 121       0.00000000       1.00000000
  1 46 122       0.00000000       1.00000000
  1 46 123       0.00000000       1.00000000
  1 46 124       0.00000000       1.00000000
  1 46 125       0.00000000       1.00000000
  1 46 126       0.00000000       1.00000000
  1 46 128       0.00000000       1.00000000
  1 47 107       0.00000000       1.00000000
  1 47 108       0.00000000       1.00000000
  1 47 109       0.00000000       1.00000000
  1 47 110       0.00000000       1.00000000
  1 47 111       0.00000000       1.00000000
  1 47 112       0.00000000       1.00000000
  1 47 113       0.00000000       1.00000000
  1 47 114       0.00000000       1.00000000
  1 47 115       0.00000000       1.00000000
  1 47 116       0.00000000       1.00000000
  1 47 117       0.00000000       1.00000000
  1 47 118       0.00000000       1.00000000
  1 47 119       0.00000000       1.00000000
  1 47 120       0.00000000       1.00000000
  1 47 121       0.00000000       1.00000000
  1 47 122       0.00000000       1.00000000
  1 47 123       0.00000000       1.00000000
  1 47 124       0.00000000       1.00000000
  1 47 125       0.00000000       1.00000000
  1 47 128       0.00000000       1.00000000
  1 48 106       0.00000000       1.00000000
  1 48 107       0.00000000       1.00000000
  1 48 108       0.00000000       1.00000000
  1 48 109       0.00000000       1.00000000
  1 48 110       0.00000000       1.00000000
  1 48 111       0.00000000       1.00000000
  1 48 112       0.00000000       1.00000000
  1 48 113       0.00000000       1.00000000
  1 48 114       0.00000000       1.00000000
  1 48 115       0.00000000       1.00000000
  1 48 116       0.00000000       1.00000000
  1 48 117       0.00000000       1.00000000
  1 48 118       0.00000000       1.00000000
  1 48 119       0.00000000       1.00000000
  1 48 120       0.00000000       1.00000000
  1 48 121       0.00000000       1.00000000
  1 48 122       0.00000000       1.00000000
  1 48 123       0.00000000       1.00000000
  1 48 124       0.00000000       1.00000000
  1 49 105       0.00000000       1.00000000
  1 49 106       0.00000000       1.00000000
  1 49 107       0.00000000       1.00000000
  1 49 108       0.00000000       1.00000000
  1 49 109       0.00000000       1.00000000
  1 49 110       0.00000000       1.00000000
  1 49 111       0.00000000       1.00000000
  1 49 112       0.00000000       1.00000000
  1 49 113       0.00000000       1.00000000
  1 49 114       0.00000000       1.00000000
  1 49 115       0.00000000       1.00000000
  1 49 116       0.00000000       1.00000000
  1 49 117       0.00000000       1.00000000
  1 49 118       0.00000000       1.00000000
  1 49 119       0.00000000       1.00000000
  1 49 120       0.00000000       1.00000000
  1 49 121       0.00000000       1.00000000
  1 49 122       0.00000000       1.00000000
  1 49 123       0.00000000       1.00000000
  1 49 124       0.00000000       1.00000000
  1 49 125       0.00000000       1.00000000
  1 49 126       0.00000000       1.00000000
  1 49 127       0.00000000       1.00000000
  1 49 128       0.00000000       1.00000000
  1 50 105       0.00000000       1.00000000
  1 50 106       0.00000000       1.00000000
  1 50 109       0.00000000       1.00000000
  1 50 110       0.00000000       1.00000000
  1 50 111       0.00000000       1.00000000
  1 50 112       0.00000000       1.00000000
  1 50 113       0.00000000       1.00000000
  1 50 114       0.00000000       1.00000000
  1 50 115       0.00000000       1.00000000
  1 50 116       0.00000000       1.00000000
  1 50 117       0.00000000       1.00000000
  1 50 118       0.00000000       1.00000000
  1 50 119       0.00000000       1.00000000
  1 50 120       0.00000000       1.00000000
  1 50 121       0.00000000       1.00000000
  1 50 122       0.00000000       1.00000000
  1 50 123       0.00000000       1.00000000
  1 50 124       0.00000000       1.00000000
  1 50 125       0.00000000       1.00000000
  1 50 126       0.00000000       1.00000000
  1 50 127       0.00000000       1.00000000
  1 50 128       0.00000000       1.00000000
  1 51 109       0.00000000       1.00000000
  1 51 110       0.00000000       1.00000000
  1 51 111       0.00000000       1.00000000
  1 51 112       0.00000000       1.00000000
  1 51 113       0.00000000       1.00000000
  1 51 114       0.00000000       1.00000000
  1 51 115       0.00000000       1.00000000
  1 51 116       0.00000000       1.00000000
  1 51 117       0.00000000       1.00000000
  1 51 118       0.00000000       1.00000000
  1 51 119       0.00000000       1.00000000
  1 51 120       0.00000000       1.00000000
  1 51 121       0.00000000       1.00000000
  1 51 122       0.00000000       1.00000000
  1 51 124       0.00000000       1.00000000
  1 51 125       0.00000000       1.00000000
  1 51 126       0.00000000       1.00000000
  1 51 127       0.00000000       1.00000000
  1 52 110       0.00000000       1.00000000
  1 52 111       0.00000000       1.00000000
  1 52 112       0.00000000       1.00000000
  1 52 113       0.00000000       1.00000000
  1 52 114       0.00000000       1.00000000
  1 52 115       0.00000000       1.00000000
  1 52 116       0.00000000       1.00000000
  1 52 117       0.00000000       1.00000000
  1 52 118       0.00000000       1.00000000
  1 52 119       0.00000000       1.00000000
  1 52 120       0.00000000       1.00000000
  1 52 121       0.00000000       1.00000000
  1 52 122       0.00000000       1.00000000
  1 52 124       0.00000000       1.00000000
  1 52 125       0.00000000       1.00000000
  1 52 126       0.00000000       1.00000000
  1 53 110       0.00000000       1.00000000
  1 53 111       0.00000000       1.00000000
  1 53 112       0.00000000       1.00000000
  1 53 113       0.00000000       1.00000000
  1 53 114       0.00000000       1.00000000
  1 53 115       0.00000000       1.00000000
  1 53 116       0.00000000       1.00000000
  1 53 117       0.00000000       1.00000000
  1 53 118       0.00000000       1.00000000
  1 53 119       0.00000000       1.00000000
  1 53 120       0.00000000       1.00000000
  1 53 121       0.00000000       1.00000000
  1 53 122       0.00000000       1.00000000
  1 53 123       0.00000000       1.00000000
  1 53 124       0.00000000       1.00000000
  1 53 125       0.00000000       1.00000000
  1 53 126       0.00000000       1.00000000
  1 54 110       0.00000000       1.00000000
  1 54 111       0.00000000       1.00000000
  1 54 112       0.00000000       1.00000000
  1 54 113       0.00000000       1.00000000
  1 54 114       0.00000000       1.00000000
  1 54 115       0.00000000       1.00000000
  1 54 116       0.00000000       1.00000000
  1 54 117       0.00000000       1.00000000
  1 54 118       0.00000000       1.00000000
  1 54 119       0.00000000       1.00000000
  1 54 120       0.00000000       1.00000000
  1 54 121       0.00000000       1.00000000
  1 54 122       0.00000000       1.00000000
  1 54 123       0.00000000       1.00000000
  1 54 124       0.00000000       1.00000000
  1 54 125       0.00000000       1.00000000
  1 55 110       0.00000000       1.00000000
  1 55 111       0.00000000       1.00000000
  1 55 112       0.00000000       1.00000000
  1 55 113       0.00000000       1.00000000
  1 55 114       0.00000000       1.00000000
  1 55 115       0.00000000       1.00000000
  1 55 116       0.00000000       1.00000000
  1 55 117       0.00000000       1.00000000
  1 55 118       0.00000000       1.00000000
  1 55 119       0.00000000       1.00000000
  1 55 120       0.00000000       1.00000000
  1 55 121       0.00000000       1.00000000
  1 55 122       0.00000000       1.00000000
  1 55 123       0.00000000       1.00000000
  1 55 124       0.00000000       1.00000000
  1 56 110       0.00000000       1.00000000
  1 56 111       0.00000000       1.00000000
  1 56 112       0.00000000       1.00000000
  1 56 113       0.00000000       1.00000000
  1 56 114       0.00000000       1.00000000
  1 56 115       0.00000000       1.00000000
  1 56 116       0.00000000       1.00000000
  1 56 117       0.00000000       1.00000000
  1 56 118       0.00000000       1.00000000
  1 56 119       0.00000000       1.00000000
  1 56 120       0.00000000       1.00000000
  1 56 121       0.00000000       1.00000000
  1 56 122       0.00000000       1.00000000
  1 56 123       0.00000000       1.00000000
  1 56 124       0.00000000       1.00000000
  1 56 125       0.00000000       1.00000000
  1 56 126       0.00000000       1.00000000
  1 57 111       0.00000000       1.00000000
  1 57 112       0.00000000       1.00000000
  1 57 113       0.00000000       1.00000000
  1 57 114       0.00000000       1.00000000
  1 57 115       0.00000000       1.00000000
  1 57 116       0.00000000       1.00000000
  1 57 117       0.00000000       1.00000000
  1 57 118       0.00000000       1.00000000
  1 57 119       0.00000000       1.00000000
  1 57 120       0.00000000       1.00000000
  1 57 121       0.00000000       1.00000000
  1 57 122       0.00000000       1.00000000
  1 57 123       0.00000000       1.00000000
  1 57 124       0.00000000       1.00000000
  1 58 111       0.00000000       1.00000000
  1 58 112       0.00000000       1.00000000
  1 58 113       0.00000000       1.00000000
  1 58 114       0.00000000       1.00000000
  1 58 115       0.00000000       1.00000000
  1 58 116       0.00000000       1.00000000
  1 58 117       0.00000000       1.00000000
  1 58 118       0.00000000       1.00000000
  1 58 119       0.00000000       1.00000000
  1 58 120       0.00000000       1.00000000
  1 58 121       0.00000000       1.00000000
  1 58 122       0.00000000       1.00000000
  1 58 123       0.00000000       1.00000000
  1 58 124       0.00000000       1.00000000
  1 58 125       0.00000000       1.00000000
  1 58 126       0.00000000       1.00000000
  1 59 112       0.00000000       1.00000000
  1 59 113       0.00000000       1.00000000
  1 59 114       0.00000000       1.00000000
  1 59 115       0.00000000       1.00000000
  1 59 116       0.00000000       1.00000000
  1 59 117       0.00000000       1.00000000
  1 59 118       0.00000000       1.00000000
  1 59 119       0.00000000       1.00000000
  1 59 120       0.00000000       1.00000000
  1 59 121       0.00000000       1.00000000
  1 59 122       0.00000000       1.00000000
  1 59 123       0.00000000       1.00000000
  1 59 124       0.00000000       1.00000000
  1 59 125       0.00000000       1.00000000
  1 59 126       0.00000000       1.00000000
  1 60 112       0.00000000       1.00000000
  1 60 113       0.00000000       1.00000000
  1 60 114       0.00000000       1.00000000
  1 60 115       0.00000000       1.00000000
  1 60 116       0.00000000       1.00000000
  1 60 117       0.00000000       1.00000000
  1 60 118       0.00000000       1.00000000
  1 60 119       0.00000000       1.00000000
  1 60 120       0.00000000       1.00000000
  1 60 121       0.00000000       1.00000000
  1 60 122       0.00000000       1.00000000
  1 60 123       0.00000000       1.00000000
  1 60 124       0.00000000       1.00000000
  1 60 125       0.00000000       1.00000000
  1 60 126       0.00000000       1.00000000
  1 60 127       0.00000000       1.00000000
  1 61 113       0.00000000       1.00000000
  1 61 114       0.00000000       1.00000000
  1 61 115       0.00000000       1.00000000
  1 61 116       0.00000000       1.00000000
  1 61 117       0.00000000       1.00000000
  1 61 118       0.00000000       1.00000000
  1 61 119       0.00000000       1.00000000
  1 61 120       0.00000000       1.00000000
  1 61 121       0.00000000       1.00000000
  1 61 125       0.00000000       1.00000000
  1 61 126       0.00000000       1.00000000
  1 62 114       0.00000000       1.00000000
  1 62 115       0.00000000       1.00000000
  1 62 116       0.00000000       1.00000000
  1 62 117       0.00000000       1.00000000
  1 62 125       0.00000000       1.00000000
  1 62 126       0.00000000       1.00000000
  1 62 128       0.00000000       1.00000000
  1 105 121       0.00000000       1.00000000
  1 105 122       0.00000000       1.00000000
  1 105 124       0.00000000       1.00000000
  1 105 125       0.00000000       1.00000000
  1 106 120       0.00000000       1.00000000
  1 106 121       0.00000000       1.00000000
  1 106 122       0.00000000       1.00000000
  1 106 123       0.00000000       1.00000000
  1 106 124       0.00000000       1.00000000
  1 106 125       0.00000000       1.00000000
  1 106 126       0.00000000       1.00000000
  1 107 119       0.00000000       1.00000000
  1 107 120       0.00000000       1.00000000
  1 107 121       0.00000000       1.00000000
  1 107 122       0.00000000       1.00000000
  1 107 123       0.00000000       1.00000000
  1 107 124       0.00000000       1.00000000
  1 107 125       0.00000000       1.00000000
  1 107 126       0.00000000       1.00000000
  1 108 119       0.00000000       1.00000000
  1 108 120       0.00000000       1.00000000
  1 108 121       0.00000000       1.00000000
  1 108 122       0.00000000       1.00000000
  1 108 123       0.00000000       1.00000000
  1 108 124       0.00000000       1.00000000
  1 108 125       0.00000000       1.00000000
  1 108 126       0.00000000       1.00000000
  1 109 119       0.00000000       1.00000000
  1 109 120       0.00000000       1.00000000
  1 109 121       0.00000000       1.00000000
  1 109 123       0.00000000       1.00000000
  1 109 124       0.00000000       1.00000000
  1 109 125       0.00000000       1.00000000
  1 109 126       0.00000000       1.00000000
  1 110 120       0.00000000       1.00000000
  1 110 124       0.00000000       1.00000000
  1 110 125       0.00000000       1.00000000
  1 110 126       0.00000000       1.00000000
  1 110 127       0.00000000       1.00000000
  1 111 123       0.00000000       1.00000000
  1 111 124       0.00000000       1.00000000
  1 111 125       0.00000000       1.00000000
  1 111 126       0.00000000       1.00000000
  1 111 127       0.00000000       1.00000000
  1 112 123       0.00000000       1.00000000
  1 112 124       0.00000000       1.00000000
  1 112 125       0.00000000       1.00000000
  1 112 126       0.00000000       1.00000000
  1 113 123       0.00000000       1.00000000
  1 113 124       0.00000000       1.00000000
  1 113 125       0.00000000       1.00000000
  1 113 126       0.00000000       1.00000000
  1 113 127       0.00000000       1.00000000
  1 114 123       0.00000000       1.00000000
  1 114 124       0.00000000       1.00000000
  1 114 125       0.00000000       1.00000000
  1 114 126       0.00000000       1.00000000
  1 114 127       0.00000000       1.00000000
  1 115 123       0.00000000       1.00000000
  1 115 124       0.00000000       1.00000000
  1 115 125       0.00000000       1.00000000
  1 115 126       0.00000000       1.00000000
  1 116 123       0.00000000       1.00000000
  1 116 124       0.00000000       1.00000000
  1 116 125       0.00000000       1.00000000
  1 116 126       0.00000000       1.00000000
  1 117 124       0.00000000       1.00000000
  1 117 125       0.00000000       1.00000000
  1 117 126       0.00000000       1.00000000
  1 117 127       0.00000000       1.00000000
  1 118 124       0.00000000       1.00000000
  1 118 125       0.00000000       1.00000000
  1 118 126       0.00000000       1.00000000
  1 118 127       0.00000000       1.00000000
  1 119 125       0.00000000       1.00000000
  1 119 126       0.00000000       1.00000000
END period  1

