BEGIN options
  SAVE_FLOWS
END options

BEGIN dimensions
  MAXBOUND  65
END dimensions

BEGIN period  1
  1 136 48     135.00000000       0.00500000     133.00000000
  1 135 48     128.00000000       0.00500000     126.00000000
  1 135 49     122.00000000       0.00500000     120.00000000
  1 135 50     120.00000000       0.00500000     118.00000000
  1 135 51     120.00000000       0.00500000     118.00000000
  1 136 51     120.00000000       0.00500000     118.00000000
  1 136 52     120.00000000       0.00500000     118.00000000
  1 136 53     117.36689628       0.00500000     115.36689628
  1 135 53     115.56438541       0.00500000     113.56438541
  1 135 54     113.00000000       0.00500000     111.00000000
  1 135 55     111.48825646       0.00500000     109.48825646
  1 135 56     110.00000000       0.00500000     108.00000000
  1 134 56     110.00000000       0.00500000     108.00000000
  1 134 57     110.00000000       0.00500000     108.00000000
  1 134 58     110.00000000       0.00500000     108.00000000
  1 135 58     110.50000000       0.00500000     108.50000000
  1 136 58     109.59347030       0.00500000     107.59347030
  1 136 59     109.46401951       0.00500000     107.46401951
  1 135 59     108.50000000       0.00500000     106.50000000
  1 135 60     107.15924584       0.00500000     105.15924584
  1 134 60     106.40059546       0.00500000     104.40059546
  1 134 61     105.45000000       0.00500000     103.45000000
  1 134 62      97.50000000       0.00500000      95.50000000
  1 133 62      95.41660443       0.00500000      93.41660443
  1 132 62      93.90232066       0.00500000      91.90232066
  1 133 63      92.74947801       0.00500000      90.74947801
  1 133 64      91.00000000       0.00500000      89.00000000
  1 132 64      89.22212779       0.00500000      87.22212779
  1 133 65      87.00000000       0.00500000      85.00000000
  1 132 65      87.00000000       0.00500000      85.00000000
  1 132 66      87.00000000       0.00500000      85.00000000
  1 131 66      84.68260061       0.00500000      82.68260061
  1 131 67      82.98431269       0.00500000      80.98431269
  1 132 67      80.20000000       0.00500000      78.20000000
  1 132 68      79.82205882       0.00500000      77.82205882
  1 131 68      79.42000000       0.00500000      77.42000000
  1 131 69      77.53000000       0.00500000      75.53000000
  1 131 70      74.86000000       0.00500000      72.86000000
  1 130 70      72.75344543       0.00500000      70.75344543
  1 130 71      70.62000000       0.00500000      68.62000000
  1 131 71      70.43985882       0.00500000      68.43985882
  1 131 72      70.32445221       0.00500000      68.32445221
  1 130 72      70.04000000       0.00500000      68.04000000
  1 129 72      69.78000000       0.00500000      67.78000000
  1 129 73      69.99000000       0.00500000      67.99000000
  1 128 73      68.26000000       0.00500000      66.26000000
  1 127 73      65.22000000       0.00500000      63.22000000
  1 127 74      63.01000000       0.00500000      61.01000000
  1 128 74      62.04179686       0.00500000      60.04179686
  1 128 75      61.00000000       0.00500000      59.00000000
  1 128 76      61.00000000       0.00500000      59.00000000
  1 127 76      60.00340855       0.00500000      58.00340855
  1 127 77      59.17000000       0.00500000      57.17000000
  1 126 77      55.80000000       0.00500000      53.80000000
  1 126 78      55.67665630       0.00500000      53.67665630
  1 126 79      55.57377765       0.00500000      53.57377765
  1 125 79      55.46000000       0.00500000      53.46000000
  1 125 80      53.10000000       0.00500000      51.10000000
  1 125 81      49.98000000       0.00500000      47.98000000
  1 124 81      49.50000000       0.00500000      47.50000000
  1 124 82      46.00000000       0.00500000      44.00000000
  1 124 83      45.00000000       0.00500000      43.00000000
  1 123 83      45.00000000       0.00500000      43.00000000
  1 123 84      45.00000000       0.00500000      43.00000000
  1 122 84      45.00000000       0.00500000      43.00000000
END period  1

