BEGIN options
END options

BEGIN packages
  DIS6  multi_couches.dis  dis
  IC6  multi_couches.ic  ic
  OC6  multi_couches.oc  oc
  NPF6  multi_couches.npf  npf
  RCH6  multi_couches.rcha  rch
  CHD6  sea.chd  sea
END packages

