BEGIN options
  BUDGET  FILEOUT  multi_couches.cbc
  HEAD  FILEOUT  multi_couches.hds
END options

BEGIN period  1
  SAVE  HEAD  LAST
  SAVE  BUDGET  LAST
  PRINT  BUDGET  ALL
END period  1

