BEGIN options
  BUDGET  FILEOUT  2D_Q.cbc
  HEAD  FILEOUT  2D_Q.hds
END options

BEGIN period  1
  SAVE  HEAD  LAST
  SAVE  BUDGET  ALL
  PRINT  HEAD  LAST
  PRINT  BUDGET  ALL
END period  1

