BEGIN options
  SAVE_FLOWS
  SAVE_SPECIFIC_DISCHARGE
END options

BEGIN griddata
  icelltype
    CONSTANT  0
  k
    INTERNAL  FACTOR  1.0
    1.00000005E-04  1.00000005E-04  1.00000005E-04  1.00000005E-04  1.00000005E-04  1.00000005E-04  1.00000005E-04  1.00000005E-04  1.00000005E-04  1.00000005E-04  1.00000005E-04  1.00000005E-04  1.00000005E-04  1.00000005E-04  1.00000005E-04  1.00000005E-04  1.00000005E-04  1.00000005E-04  1.00000005E-04  1.00000005E-04
    1.00000005E-04  1.00000005E-04  1.00000005E-04  1.00000005E-04  1.00000005E-04  1.00000005E-04  1.00000005E-04  1.00000005E-04  1.00000005E-04  1.00000005E-04  1.00000005E-04  1.00000005E-04  1.00000005E-04  1.00000005E-04  1.00000005E-04  1.00000005E-04  1.00000005E-04  1.00000005E-04  1.00000005E-04  1.00000005E-04
    1.00000005E-04  1.00000005E-04  1.00000005E-04  1.00000005E-04  1.00000005E-04  1.00000005E-04  1.00000005E-04  1.00000005E-04  1.00000005E-04  1.00000005E-04  1.00000005E-04  1.00000005E-04  1.00000005E-04  1.00000005E-04  1.00000005E-04  1.00000005E-04  1.00000005E-04  1.00000005E-04  1.00000005E-04  1.00000005E-04
    1.00000005E-04  1.00000005E-04  1.00000005E-04  1.00000005E-04  1.00000005E-04  1.00000005E-04  1.00000005E-04  1.00000005E-04  1.00000005E-04  1.00000005E-04  1.00000005E-04  1.00000005E-04  1.00000005E-04  1.00000005E-04  1.00000005E-04  1.00000005E-04  1.00000005E-04  1.00000005E-04  1.00000005E-04  1.00000005E-04
    1.00000005E-04  1.00000005E-04  1.00000005E-04       0.00131360       0.00130001  1.00000005E-04  1.00000005E-04  1.00000005E-04  1.00000005E-04  1.00000005E-04  1.00000005E-04  1.00000005E-04  1.00000005E-04  1.00000005E-04  1.00000005E-04  1.00000005E-04  1.00000005E-04  1.00000005E-04  1.00000005E-04  1.00000005E-04
    1.00000005E-04  1.00000005E-04  1.00000005E-04  1.00000005E-04  1.00000005E-04  1.00000005E-04  1.00000005E-04  1.00000005E-04  1.00000005E-04  1.00000005E-04  1.00000005E-04  1.00000005E-04  1.00000005E-04  1.00000005E-04  1.00000005E-04  1.00000005E-04  1.00000005E-04  1.00000005E-04  1.00000005E-04  1.00000005E-04
    1.00000005E-04  1.00000005E-04  1.00000005E-04  1.00000005E-04  1.00000005E-04  1.00000005E-04  1.00000005E-04  1.00000005E-04  1.00000005E-04  1.00000005E-04  1.00000005E-04  1.00000005E-04  1.00000005E-04  1.00000005E-04  1.00000005E-04  1.00000005E-04  1.00000005E-04  1.00000005E-04  1.00000005E-04  1.00000005E-04
    1.00000005E-04  1.00000005E-04  1.00000005E-04  1.00000005E-04  1.00000005E-04  1.00000005E-04  1.00000005E-04  1.00000005E-04  1.00000005E-04  1.00000005E-04  1.00000005E-04  1.00000005E-04  1.00000005E-04  1.00000005E-04  1.00000005E-04  1.00000005E-04  1.00000005E-04  1.00000005E-04  1.00000005E-04  1.00000005E-04
    1.00000005E-04  1.00000005E-04  1.00000005E-04  1.00000005E-04  1.00000005E-04  1.00000005E-04  1.00000005E-04  1.00000005E-04  1.00000005E-04  1.00000005E-04  1.00000005E-04  1.00000005E-04  1.00000005E-04  1.00000005E-04  1.00000005E-04  1.00000005E-04  1.00000005E-04  1.00000005E-04  1.00000005E-04  1.00000005E-04
    1.00000005E-04  1.00000005E-04  1.00000005E-04       0.00131360       0.00130001  1.00000005E-04  1.00000005E-04  1.00000005E-04  1.00000005E-04  1.00000005E-04  1.00000005E-04  1.00000005E-04  1.00000005E-04  1.00000005E-04  1.00000005E-04  1.00000005E-04  1.00000005E-04  1.00000005E-04  1.00000005E-04  1.00000005E-04
    1.00000005E-04  1.00000005E-04  1.00000005E-04  1.00000005E-04  1.00000005E-04  1.00000005E-04  1.00000005E-04  1.00000005E-04  1.00000005E-04  1.00000005E-04  1.00000005E-04  1.00000005E-04  1.00000005E-04  1.00000005E-04  1.00000005E-04  1.00000005E-04  1.00000005E-04  1.00000005E-04  1.00000005E-04  1.00000005E-04
    1.00000005E-04  1.00000005E-04  1.00000005E-04  1.00000005E-04  1.00000005E-04  1.00000005E-04  1.00000005E-04  1.00000005E-04  1.00000005E-04  1.00000005E-04  1.00000005E-04  1.00000005E-04  1.00000005E-04  1.00000005E-04  1.00000005E-04  1.00000005E-04  1.00000005E-04  1.00000005E-04  1.00000005E-04  1.00000005E-04
    1.00000005E-04  1.00000005E-04  1.00000005E-04  1.00000005E-04  1.00000005E-04  1.00000005E-04  1.00000005E-04  1.00000005E-04  1.00000005E-04  1.00000005E-04  1.00000005E-04  1.00000005E-04  1.00000005E-04  1.00000005E-04  1.00000005E-04  1.00000005E-04  1.00000005E-04  1.00000005E-04  1.00000005E-04  1.00000005E-04
    1.00000005E-04  1.00000005E-04  1.00000005E-04  1.00000005E-04  1.00000005E-04  1.00000005E-04  1.00000005E-04  1.00000005E-04  1.00000005E-04  1.00000005E-04  1.00000005E-04  1.00000005E-04  1.00000005E-04  1.00000005E-04  1.00000005E-04  1.00000005E-04  1.00000005E-04  1.00000005E-04  1.00000005E-04  1.00000005E-04
    1.00000005E-04  1.00000005E-04  1.00000005E-04       0.00131360       0.00130001  1.00000005E-04  1.00000005E-04  1.00000005E-04  1.00000005E-04  1.00000005E-04  1.00000005E-04  1.00000005E-04  1.00000005E-04  1.00000005E-04  1.00000005E-04  1.00000005E-04  1.00000005E-04  1.00000005E-04  1.00000005E-04  1.00000005E-04
    1.00000005E-04  1.00000005E-04  1.00000005E-04  1.00000005E-04  1.00000005E-04  1.00000005E-04  1.00000005E-04  1.00000005E-04  1.00000005E-04  1.00000005E-04  1.00000005E-04  1.00000005E-04  1.00000005E-04  1.00000005E-04  1.00000005E-04  1.00000005E-04  1.00000005E-04  1.00000005E-04  1.00000005E-04  1.00000005E-04
    1.00000005E-04  1.00000005E-04  1.00000005E-04  1.00000005E-04  1.00000005E-04  1.00000005E-04  1.00000005E-04  1.00000005E-04  1.00000005E-04  1.00000005E-04  1.00000005E-04  1.00000005E-04  1.00000005E-04  1.00000005E-04  1.00000005E-04  1.00000005E-04  1.00000005E-04  1.00000005E-04  1.00000005E-04  1.00000005E-04
    1.00000005E-04  1.00000005E-04  1.00000005E-04  1.00000005E-04  1.00000005E-04  1.00000005E-04  1.00000005E-04  1.00000005E-04  1.00000005E-04  1.00000005E-04  1.00000005E-04  1.00000005E-04  1.00000005E-04  1.00000005E-04  1.00000005E-04  1.00000005E-04  1.00000005E-04  1.00000005E-04  1.00000005E-04  1.00000005E-04
    1.00000005E-04  1.00000005E-04  1.00000005E-04  1.00000005E-04  1.00000005E-04  1.00000005E-04  1.00000005E-04  1.00000005E-04  1.00000005E-04  1.00000005E-04  1.00000005E-04  1.00000005E-04  1.00000005E-04  1.00000005E-04  1.00000005E-04  1.00000005E-04  1.00000005E-04  1.00000005E-04  1.00000005E-04  1.00000005E-04
    1.00000005E-04  1.00000005E-04  1.00000005E-04       0.00131360       0.00130001  1.00000005E-04  1.00000005E-04  1.00000005E-04  1.00000005E-04  1.00000005E-04  1.00000005E-04  1.00000005E-04  1.00000005E-04  1.00000005E-04  1.00000005E-04  1.00000005E-04  1.00000005E-04  1.00000005E-04  1.00000005E-04  1.00000005E-04
    1.00000005E-04  1.00000005E-04  1.00000005E-04  1.00000005E-04  1.00000005E-04  1.00000005E-04  1.00000005E-04  1.00000005E-04  1.00000005E-04  1.00000005E-04  1.00000005E-04  1.00000005E-04  1.00000005E-04  1.00000005E-04  1.00000005E-04  1.00000005E-04  1.00000005E-04  1.00000005E-04  1.00000005E-04  1.00000005E-04
    1.00000005E-04  1.00000005E-04  1.00000005E-04  1.00000005E-04  1.00000005E-04  1.00000005E-04  1.00000005E-04  1.00000005E-04  1.00000005E-04  1.00000005E-04  1.00000005E-04  1.00000005E-04  1.00000005E-04  1.00000005E-04  1.00000005E-04  1.00000005E-04  1.00000005E-04  1.00000005E-04  1.00000005E-04  1.00000005E-04
    1.00000005E-04  1.00000005E-04  1.00000005E-04  1.00000005E-04  1.00000005E-04  1.00000005E-04  1.00000005E-04  1.00000005E-04  1.00000005E-04  1.00000005E-04  1.00000005E-04  1.00000005E-04  1.00000005E-04  1.00000005E-04  1.00000005E-04  1.00000005E-04  1.00000005E-04  1.00000005E-04  1.00000005E-04  1.00000005E-04
    1.00000005E-04  1.00000005E-04  1.00000005E-04  1.00000005E-04  1.00000005E-04  1.00000005E-04  1.00000005E-04  1.00000005E-04  1.00000005E-04  1.00000005E-04  1.00000005E-04  1.00000005E-04  1.00000005E-04  1.00000005E-04  1.00000005E-04  1.00000005E-04  1.00000005E-04  1.00000005E-04  1.00000005E-04  1.00000005E-04
    1.00000005E-04  1.00000005E-04  1.00000005E-04       0.00131360       0.00130001  1.00000005E-04  1.00000005E-04  1.00000005E-04  1.00000005E-04  1.00000005E-04  1.00000005E-04  1.00000005E-04  1.00000005E-04  1.00000005E-04  1.00000005E-04  1.00000005E-04  1.00000005E-04  1.00000005E-04  1.00000005E-04  1.00000005E-04
    1.00000005E-04  1.00000005E-04  1.00000005E-04  1.00000005E-04  1.00000005E-04  1.00000005E-04  1.00000005E-04  1.00000005E-04  1.00000005E-04  1.00000005E-04  1.00000005E-04  1.00000005E-04  1.00000005E-04  1.00000005E-04  1.00000005E-04  1.00000005E-04  1.00000005E-04  1.00000005E-04  1.00000005E-04  1.00000005E-04
    1.00000005E-04  1.00000005E-04  1.00000005E-04  1.00000005E-04  1.00000005E-04  1.00000005E-04  1.00000005E-04  1.00000005E-04  1.00000005E-04  1.00000005E-04  1.00000005E-04  1.00000005E-04  1.00000005E-04  1.00000005E-04  1.00000005E-04  1.00000005E-04  1.00000005E-04  1.00000005E-04  1.00000005E-04  1.00000005E-04
    1.00000005E-04  1.00000005E-04  1.00000005E-04  1.00000005E-04  1.00000005E-04  1.00000005E-04  1.00000005E-04  1.00000005E-04  1.00000005E-04  1.00000005E-04  1.00000005E-04  1.00000005E-04  1.00000005E-04  1.00000005E-04  1.00000005E-04  1.00000005E-04  1.00000005E-04  1.00000005E-04  1.00000005E-04  1.00000005E-04
    1.00000005E-04  1.00000005E-04  1.00000005E-04  1.00000005E-04  1.00000005E-04  1.00000005E-04  1.00000005E-04  1.00000005E-04  1.00000005E-04  1.00000005E-04  1.00000005E-04  1.00000005E-04  1.00000005E-04  1.00000005E-04  1.00000005E-04  1.00000005E-04  1.00000005E-04  1.00000005E-04  1.00000005E-04  1.00000005E-04
    1.00000005E-04  1.00000005E-04  1.00000005E-04       0.00131360       0.00130001  1.00000005E-04  1.00000005E-04  1.00000005E-04  1.00000005E-04  1.00000005E-04  1.00000005E-04  1.00000005E-04  1.00000005E-04  1.00000005E-04  1.00000005E-04  1.00000005E-04  1.00000005E-04  1.00000005E-04  1.00000005E-04  1.00000005E-04
    1.00000005E-04  1.00000005E-04  1.00000005E-04  1.00000005E-04  1.00000005E-04  1.00000005E-04  1.00000005E-04  1.00000005E-04  1.00000005E-04  1.00000005E-04  1.00000005E-04  1.00000005E-04  1.00000005E-04  1.00000005E-04  1.00000005E-04  1.00000005E-04  1.00000005E-04  1.00000005E-04  1.00000005E-04  1.00000005E-04
    1.00000005E-04  1.00000005E-04  1.00000005E-04  1.00000005E-04  1.00000005E-04  1.00000005E-04  1.00000005E-04  1.00000005E-04  1.00000005E-04  1.00000005E-04  1.00000005E-04  1.00000005E-04  1.00000005E-04  1.00000005E-04  1.00000005E-04  1.00000005E-04  1.00000005E-04  1.00000005E-04  1.00000005E-04  1.00000005E-04
    1.00000005E-04  1.00000005E-04  1.00000005E-04  1.00000005E-04  1.00000005E-04  1.00000005E-04  1.00000005E-04  1.00000005E-04  1.00000005E-04  1.00000005E-04  1.00000005E-04  1.00000005E-04  1.00000005E-04  1.00000005E-04  1.00000005E-04  1.00000005E-04  1.00000005E-04  1.00000005E-04  1.00000005E-04  1.00000005E-04
    1.00000005E-04  1.00000005E-04  1.00000005E-04  1.00000005E-04  1.00000005E-04  1.00000005E-04  1.00000005E-04  1.00000005E-04  1.00000005E-04  1.00000005E-04  1.00000005E-04  1.00000005E-04  1.00000005E-04  1.00000005E-04  1.00000005E-04  1.00000005E-04  1.00000005E-04  1.00000005E-04  1.00000005E-04  1.00000005E-04
    1.00000005E-04  1.00000005E-04  1.00000005E-04       0.00131360       0.00130001  1.00000005E-04  1.00000005E-04  1.00000005E-04  1.00000005E-04  1.00000005E-04  1.00000005E-04  1.00000005E-04  1.00000005E-04  1.00000005E-04  1.00000005E-04  1.00000005E-04  1.00000005E-04  1.00000005E-04  1.00000005E-04  1.00000005E-04
    1.00000005E-04  1.00000005E-04  1.00000005E-04  1.00000005E-04  1.00000005E-04  1.00000005E-04  1.00000005E-04  1.00000005E-04  1.00000005E-04  1.00000005E-04  1.00000005E-04  1.00000005E-04  1.00000005E-04  1.00000005E-04  1.00000005E-04  1.00000005E-04  1.00000005E-04  1.00000005E-04  1.00000005E-04  1.00000005E-04
    1.00000005E-04  1.00000005E-04  1.00000005E-04  1.00000005E-04  1.00000005E-04  1.00000005E-04  1.00000005E-04  1.00000005E-04  1.00000005E-04  1.00000005E-04  1.00000005E-04  1.00000005E-04  1.00000005E-04  1.00000005E-04  1.00000005E-04  1.00000005E-04  1.00000005E-04  1.00000005E-04  1.00000005E-04  1.00000005E-04
    1.00000005E-04  1.00000005E-04  1.00000005E-04  1.00000005E-04  1.00000005E-04  1.00000005E-04  1.00000005E-04  1.00000005E-04  1.00000005E-04  1.00000005E-04  1.00000005E-04  1.00000005E-04  1.00000005E-04  1.00000005E-04  1.00000005E-04  1.00000005E-04  1.00000005E-04  1.00000005E-04  1.00000005E-04  1.00000005E-04
    1.00000005E-04  1.00000005E-04  1.00000005E-04  1.00000005E-04  1.00000005E-04  1.00000005E-04  1.00000005E-04  1.00000005E-04  1.00000005E-04  1.00000005E-04  1.00000005E-04  1.00000005E-04  1.00000005E-04  1.00000005E-04  1.00000005E-04  1.00000005E-04  1.00000005E-04  1.00000005E-04  1.00000005E-04  1.00000005E-04
    1.00000005E-04  1.00000005E-04  1.00000005E-04       0.00131360       0.00130001  1.00000005E-04  1.00000005E-04  1.00000005E-04  1.00000005E-04  1.00000005E-04  1.00000005E-04  1.00000005E-04  1.00000005E-04  1.00000005E-04  1.00000005E-04  1.00000005E-04  1.00000005E-04  1.00000005E-04  1.00000005E-04  1.00000005E-04
    1.00000005E-04  1.00000005E-04  1.00000005E-04  1.00000005E-04  1.00000005E-04  1.00000005E-04  1.00000005E-04  1.00000005E-04  1.00000005E-04  1.00000005E-04  1.00000005E-04  1.00000005E-04  1.00000005E-04  1.00000005E-04  1.00000005E-04  1.00000005E-04  1.00000005E-04  1.00000005E-04  1.00000005E-04  1.00000005E-04
    1.00000005E-04  1.00000005E-04  1.00000005E-04  1.00000005E-04  1.00000005E-04  1.00000005E-04  1.00000005E-04  1.00000005E-04  1.00000005E-04  1.00000005E-04  1.00000005E-04  1.00000005E-04  1.00000005E-04  1.00000005E-04  1.00000005E-04  1.00000005E-04  1.00000005E-04  1.00000005E-04  1.00000005E-04  1.00000005E-04
    1.00000005E-04  1.00000005E-04  1.00000005E-04  1.00000005E-04  1.00000005E-04  1.00000005E-04  1.00000005E-04  1.00000005E-04  1.00000005E-04  1.00000005E-04  1.00000005E-04  1.00000005E-04  1.00000005E-04  1.00000005E-04  1.00000005E-04  1.00000005E-04  1.00000005E-04  1.00000005E-04  1.00000005E-04  1.00000005E-04
    1.00000005E-04  1.00000005E-04  1.00000005E-04  1.00000005E-04  1.00000005E-04  1.00000005E-04  1.00000005E-04  1.00000005E-04  1.00000005E-04  1.00000005E-04  1.00000005E-04  1.00000005E-04  1.00000005E-04  1.00000005E-04  1.00000005E-04  1.00000005E-04  1.00000005E-04  1.00000005E-04  1.00000005E-04  1.00000005E-04
    1.00000005E-04  1.00000005E-04  1.00000005E-04       0.00131360       0.00130001  1.00000005E-04  1.00000005E-04  1.00000005E-04  1.00000005E-04  1.00000005E-04  1.00000005E-04  1.00000005E-04  1.00000005E-04  1.00000005E-04  1.00000005E-04  1.00000005E-04  1.00000005E-04  1.00000005E-04  1.00000005E-04  1.00000005E-04
    1.00000005E-04  1.00000005E-04  1.00000005E-04  1.00000005E-04  1.00000005E-04  1.00000005E-04  1.00000005E-04  1.00000005E-04  1.00000005E-04  1.00000005E-04  1.00000005E-04  1.00000005E-04  1.00000005E-04  1.00000005E-04  1.00000005E-04  1.00000005E-04  1.00000005E-04  1.00000005E-04  1.00000005E-04  1.00000005E-04
    1.00000005E-04  1.00000005E-04  1.00000005E-04  1.00000005E-04  1.00000005E-04  1.00000005E-04  1.00000005E-04  1.00000005E-04  1.00000005E-04  1.00000005E-04  1.00000005E-04  1.00000005E-04  1.00000005E-04  1.00000005E-04  1.00000005E-04  1.00000005E-04  1.00000005E-04  1.00000005E-04  1.00000005E-04  1.00000005E-04
    1.00000005E-04  1.00000005E-04  1.00000005E-04  1.00000005E-04  1.00000005E-04  1.00000005E-04  1.00000005E-04  1.00000005E-04  1.00000005E-04  1.00000005E-04  1.00000005E-04  1.00000005E-04  1.00000005E-04  1.00000005E-04  1.00000005E-04  1.00000005E-04  1.00000005E-04  1.00000005E-04  1.00000005E-04  1.00000005E-04
    1.00000005E-04  1.00000005E-04  1.00000005E-04  1.00000005E-04  1.00000005E-04  1.00000005E-04  1.00000005E-04  1.00000005E-04  1.00000005E-04  1.00000005E-04  1.00000005E-04  1.00000005E-04  1.00000005E-04  1.00000005E-04  1.00000005E-04  1.00000005E-04  1.00000005E-04  1.00000005E-04  1.00000005E-04  1.00000005E-04
    1.00000005E-04  1.00000005E-04  1.00000005E-04       0.00131360       0.00130001  1.00000005E-04  1.00000005E-04  1.00000005E-04  1.00000005E-04  1.00000005E-04  1.00000005E-04  1.00000005E-04  1.00000005E-04  1.00000005E-04  1.00000005E-04  1.00000005E-04  1.00000005E-04  1.00000005E-04  1.00000005E-04  1.00000005E-04
    1.00000005E-04  1.00000005E-04  1.00000005E-04  1.00000005E-04  1.00000005E-04  1.00000005E-04  1.00000005E-04  1.00000005E-04  1.00000005E-04  1.00000005E-04  1.00000005E-04  1.00000005E-04  1.00000005E-04  1.00000005E-04  1.00000005E-04  1.00000005E-04  1.00000005E-04  1.00000005E-04  1.00000005E-04  1.00000005E-04
    1.00000005E-04  1.00000005E-04  1.00000005E-04  1.00000005E-04  1.00000005E-04  1.00000005E-04  1.00000005E-04  1.00000005E-04  1.00000005E-04  1.00000005E-04  1.00000005E-04  1.00000005E-04  1.00000005E-04  1.00000005E-04  1.00000005E-04  1.00000005E-04  1.00000005E-04  1.00000005E-04  1.00000005E-04  1.00000005E-04
    1.00000005E-04  1.00000005E-04  1.00000005E-04  1.00000005E-04  1.00000005E-04  1.00000005E-04  1.00000005E-04  1.00000005E-04  1.00000005E-04  1.00000005E-04  1.00000005E-04  1.00000005E-04  1.00000005E-04  1.00000005E-04  1.00000005E-04  1.00000005E-04  1.00000005E-04  1.00000005E-04  1.00000005E-04  1.00000005E-04
    1.00000005E-04  1.00000005E-04  1.00000005E-04  1.00000005E-04  1.00000005E-04  1.00000005E-04  1.00000005E-04  1.00000005E-04  1.00000005E-04  1.00000005E-04  1.00000005E-04  1.00000005E-04  1.00000005E-04  1.00000005E-04  1.00000005E-04  1.00000005E-04  1.00000005E-04  1.00000005E-04  1.00000005E-04  1.00000005E-04
    1.00000005E-04  1.00000005E-04  1.00000005E-04       0.00131360       0.00130001  1.00000005E-04  1.00000005E-04  1.00000005E-04  1.00000005E-04  1.00000005E-04  1.00000005E-04  1.00000005E-04  1.00000005E-04  1.00000005E-04  1.00000005E-04  1.00000005E-04  1.00000005E-04  1.00000005E-04  1.00000005E-04  1.00000005E-04
    1.00000005E-04  1.00000005E-04  1.00000005E-04  1.00000005E-04  1.00000005E-04  1.00000005E-04  1.00000005E-04  1.00000005E-04  1.00000005E-04  1.00000005E-04  1.00000005E-04  1.00000005E-04  1.00000005E-04  1.00000005E-04  1.00000005E-04  1.00000005E-04  1.00000005E-04  1.00000005E-04  1.00000005E-04  1.00000005E-04
    1.00000005E-04  1.00000005E-04  1.00000005E-04  1.00000005E-04  1.00000005E-04  1.00000005E-04  1.00000005E-04  1.00000005E-04  1.00000005E-04  1.00000005E-04  1.00000005E-04  1.00000005E-04  1.00000005E-04  1.00000005E-04  1.00000005E-04  1.00000005E-04  1.00000005E-04  1.00000005E-04  1.00000005E-04  1.00000005E-04
    1.00000005E-04  1.00000005E-04  1.00000005E-04  1.00000005E-04  1.00000005E-04  1.00000005E-04  1.00000005E-04  1.00000005E-04  1.00000005E-04  1.00000005E-04  1.00000005E-04  1.00000005E-04  1.00000005E-04  1.00000005E-04  1.00000005E-04  1.00000005E-04  1.00000005E-04  1.00000005E-04  1.00000005E-04  1.00000005E-04
    1.00000005E-04  1.00000005E-04  1.00000005E-04  1.00000005E-04  1.00000005E-04  1.00000005E-04  1.00000005E-04  1.00000005E-04  1.00000005E-04  1.00000005E-04  1.00000005E-04  1.00000005E-04  1.00000005E-04  1.00000005E-04  1.00000005E-04  1.00000005E-04  1.00000005E-04  1.00000005E-04  1.00000005E-04  1.00000005E-04
    1.00000005E-04  1.00000005E-04  1.00000005E-04       0.00131360       0.00130001  1.00000005E-04  1.00000005E-04  1.00000005E-04  1.00000005E-04  1.00000005E-04  1.00000005E-04  1.00000005E-04  1.00000005E-04  1.00000005E-04  1.00000005E-04  1.00000005E-04  1.00000005E-04  1.00000005E-04  1.00000005E-04  1.00000005E-04
    1.00000005E-04  1.00000005E-04  1.00000005E-04  1.00000005E-04  1.00000005E-04  1.00000005E-04  1.00000005E-04  1.00000005E-04  1.00000005E-04  1.00000005E-04  1.00000005E-04  1.00000005E-04  1.00000005E-04  1.00000005E-04  1.00000005E-04  1.00000005E-04  1.00000005E-04  1.00000005E-04  1.00000005E-04  1.00000005E-04
    1.00000005E-04  1.00000005E-04  1.00000005E-04  1.00000005E-04  1.00000005E-04  1.00000005E-04  1.00000005E-04  1.00000005E-04  1.00000005E-04  1.00000005E-04  1.00000005E-04  1.00000005E-04  1.00000005E-04  1.00000005E-04  1.00000005E-04  1.00000005E-04  1.00000005E-04  1.00000005E-04  1.00000005E-04  1.00000005E-04
    1.00000005E-04  1.00000005E-04  1.00000005E-04  1.00000005E-04  1.00000005E-04  1.00000005E-04  1.00000005E-04  1.00000005E-04  1.00000005E-04  1.00000005E-04  1.00000005E-04  1.00000005E-04  1.00000005E-04  1.00000005E-04  1.00000005E-04  1.00000005E-04  1.00000005E-04  1.00000005E-04  1.00000005E-04  1.00000005E-04
    1.00000005E-04  1.00000005E-04  1.00000005E-04  1.00000005E-04  1.00000005E-04  1.00000005E-04  1.00000005E-04  1.00000005E-04  1.00000005E-04  1.00000005E-04  1.00000005E-04  1.00000005E-04  1.00000005E-04  1.00000005E-04  1.00000005E-04  1.00000005E-04  1.00000005E-04  1.00000005E-04  1.00000005E-04  1.00000005E-04
    1.00000005E-04  1.00000005E-04  1.00000005E-04       0.00131360       0.00130001  1.00000005E-04  1.00000005E-04  1.00000005E-04  1.00000005E-04  1.00000005E-04  1.00000005E-04  1.00000005E-04  1.00000005E-04  1.00000005E-04  1.00000005E-04  1.00000005E-04  1.00000005E-04  1.00000005E-04  1.00000005E-04  1.00000005E-04
    1.00000005E-04  1.00000005E-04  1.00000005E-04  1.00000005E-04  1.00000005E-04  1.00000005E-04  1.00000005E-04  1.00000005E-04  1.00000005E-04  1.00000005E-04  1.00000005E-04  1.00000005E-04  1.00000005E-04  1.00000005E-04  1.00000005E-04  1.00000005E-04  1.00000005E-04  1.00000005E-04  1.00000005E-04  1.00000005E-04
    1.00000005E-04  1.00000005E-04  1.00000005E-04  1.00000005E-04  1.00000005E-04  1.00000005E-04  1.00000005E-04  1.00000005E-04  1.00000005E-04  1.00000005E-04  1.00000005E-04  1.00000005E-04  1.00000005E-04  1.00000005E-04  1.00000005E-04  1.00000005E-04  1.00000005E-04  1.00000005E-04  1.00000005E-04  1.00000005E-04
    1.00000005E-04  1.00000005E-04  1.00000005E-04  1.00000005E-04  1.00000005E-04  1.00000005E-04  1.00000005E-04  1.00000005E-04  1.00000005E-04  1.00000005E-04  1.00000005E-04  1.00000005E-04  1.00000005E-04  1.00000005E-04  1.00000005E-04  1.00000005E-04  1.00000005E-04  1.00000005E-04  1.00000005E-04  1.00000005E-04
    1.00000005E-04  1.00000005E-04  1.00000005E-04  1.00000005E-04  1.00000005E-04  1.00000005E-04  1.00000005E-04  1.00000005E-04  1.00000005E-04  1.00000005E-04  1.00000005E-04  1.00000005E-04  1.00000005E-04  1.00000005E-04  1.00000005E-04  1.00000005E-04  1.00000005E-04  1.00000005E-04  1.00000005E-04  1.00000005E-04
    1.00000005E-04  1.00000005E-04  1.00000005E-04       0.00131360       0.00130001  1.00000005E-04  1.00000005E-04  1.00000005E-04  1.00000005E-04  1.00000005E-04  1.00000005E-04  1.00000005E-04  1.00000005E-04  1.00000005E-04  1.00000005E-04  1.00000005E-04  1.00000005E-04  1.00000005E-04  1.00000005E-04  1.00000005E-04
    1.00000005E-04  1.00000005E-04  1.00000005E-04  1.00000005E-04  1.00000005E-04  1.00000005E-04  1.00000005E-04  1.00000005E-04  1.00000005E-04  1.00000005E-04  1.00000005E-04  1.00000005E-04  1.00000005E-04  1.00000005E-04  1.00000005E-04  1.00000005E-04  1.00000005E-04  1.00000005E-04  1.00000005E-04  1.00000005E-04
    1.00000005E-04  1.00000005E-04  1.00000005E-04  1.00000005E-04  1.00000005E-04  1.00000005E-04  1.00000005E-04  1.00000005E-04  1.00000005E-04  1.00000005E-04  1.00000005E-04  1.00000005E-04  1.00000005E-04  1.00000005E-04  1.00000005E-04  1.00000005E-04  1.00000005E-04  1.00000005E-04  1.00000005E-04  1.00000005E-04
    1.00000005E-04  1.00000005E-04  1.00000005E-04  1.00000005E-04  1.00000005E-04  1.00000005E-04  1.00000005E-04  1.00000005E-04  1.00000005E-04  1.00000005E-04  1.00000005E-04  1.00000005E-04  1.00000005E-04  1.00000005E-04  1.00000005E-04  1.00000005E-04  1.00000005E-04  1.00000005E-04  1.00000005E-04  1.00000005E-04
    1.00000005E-04  1.00000005E-04  1.00000005E-04  1.00000005E-04  1.00000005E-04  1.00000005E-04  1.00000005E-04  1.00000005E-04  1.00000005E-04  1.00000005E-04  1.00000005E-04  1.00000005E-04  1.00000005E-04  1.00000005E-04  1.00000005E-04  1.00000005E-04  1.00000005E-04  1.00000005E-04  1.00000005E-04  1.00000005E-04
    1.00000005E-04  1.00000005E-04  1.00000005E-04       0.00131360       0.00130001  1.00000005E-04  1.00000005E-04  1.00000005E-04  1.00000005E-04  1.00000005E-04  1.00000005E-04  1.00000005E-04  1.00000005E-04  1.00000005E-04  1.00000005E-04  1.00000005E-04  1.00000005E-04  1.00000005E-04  1.00000005E-04  1.00000005E-04
    1.00000005E-04  1.00000005E-04  1.00000005E-04  1.00000005E-04  1.00000005E-04  1.00000005E-04  1.00000005E-04  1.00000005E-04  1.00000005E-04  1.00000005E-04  1.00000005E-04  1.00000005E-04  1.00000005E-04  1.00000005E-04  1.00000005E-04  1.00000005E-04  1.00000005E-04  1.00000005E-04  1.00000005E-04  1.00000005E-04
    1.00000005E-04  1.00000005E-04  1.00000005E-04  1.00000005E-04  1.00000005E-04  1.00000005E-04  1.00000005E-04  1.00000005E-04  1.00000005E-04  1.00000005E-04  1.00000005E-04  1.00000005E-04  1.00000005E-04  1.00000005E-04  1.00000005E-04  1.00000005E-04  1.00000005E-04  1.00000005E-04  1.00000005E-04  1.00000005E-04
    1.00000005E-04  1.00000005E-04  1.00000005E-04  1.00000005E-04  1.00000005E-04  1.00000005E-04  1.00000005E-04  1.00000005E-04  1.00000005E-04  1.00000005E-04  1.00000005E-04  1.00000005E-04  1.00000005E-04  1.00000005E-04  1.00000005E-04  1.00000005E-04  1.00000005E-04  1.00000005E-04  1.00000005E-04  1.00000005E-04
    1.00000005E-04  1.00000005E-04  1.00000005E-04  1.00000005E-04  1.00000005E-04  1.00000005E-04  1.00000005E-04  1.00000005E-04  1.00000005E-04  1.00000005E-04  1.00000005E-04  1.00000005E-04  1.00000005E-04  1.00000005E-04  1.00000005E-04  1.00000005E-04  1.00000005E-04  1.00000005E-04  1.00000005E-04  1.00000005E-04
    1.00000005E-04  1.00000005E-04  1.00000005E-04       0.00131360       0.00130001  1.00000005E-04  1.00000005E-04  1.00000005E-04  1.00000005E-04  1.00000005E-04  1.00000005E-04  1.00000005E-04  1.00000005E-04  1.00000005E-04  1.00000005E-04  1.00000005E-04  1.00000005E-04  1.00000005E-04  1.00000005E-04  1.00000005E-04
    1.00000005E-04  1.00000005E-04  1.00000005E-04  1.00000005E-04  1.00000005E-04  1.00000005E-04  1.00000005E-04  1.00000005E-04  1.00000005E-04  1.00000005E-04  1.00000005E-04  1.00000005E-04  1.00000005E-04  1.00000005E-04  1.00000005E-04  1.00000005E-04  1.00000005E-04  1.00000005E-04  1.00000005E-04  1.00000005E-04
    1.00000005E-04  1.00000005E-04  1.00000005E-04  1.00000005E-04  1.00000005E-04  1.00000005E-04  1.00000005E-04  1.00000005E-04  1.00000005E-04  1.00000005E-04  1.00000005E-04  1.00000005E-04  1.00000005E-04  1.00000005E-04  1.00000005E-04  1.00000005E-04  1.00000005E-04  1.00000005E-04  1.00000005E-04  1.00000005E-04
    1.00000005E-04  1.00000005E-04  1.00000005E-04  1.00000005E-04  1.00000005E-04  1.00000005E-04  1.00000005E-04  1.00000005E-04  1.00000005E-04  1.00000005E-04  1.00000005E-04  1.00000005E-04  1.00000005E-04  1.00000005E-04  1.00000005E-04  1.00000005E-04  1.00000005E-04  1.00000005E-04  1.00000005E-04  1.00000005E-04
    1.00000005E-04  1.00000005E-04  1.00000005E-04  1.00000005E-04  1.00000005E-04  1.00000005E-04  1.00000005E-04  1.00000005E-04  1.00000005E-04  1.00000005E-04  1.00000005E-04  1.00000005E-04  1.00000005E-04  1.00000005E-04  1.00000005E-04  1.00000005E-04  1.00000005E-04  1.00000005E-04  1.00000005E-04  1.00000005E-04
    1.00000005E-04  1.00000005E-04  1.00000005E-04       0.00131360       0.00130001  1.00000005E-04  1.00000005E-04  1.00000005E-04  1.00000005E-04  1.00000005E-04  1.00000005E-04  1.00000005E-04  1.00000005E-04  1.00000005E-04  1.00000005E-04  1.00000005E-04  1.00000005E-04  1.00000005E-04  1.00000005E-04  1.00000005E-04
    1.00000005E-04  1.00000005E-04  1.00000005E-04  1.00000005E-04  1.00000005E-04  1.00000005E-04  1.00000005E-04  1.00000005E-04  1.00000005E-04  1.00000005E-04  1.00000005E-04  1.00000005E-04  1.00000005E-04  1.00000005E-04  1.00000005E-04  1.00000005E-04  1.00000005E-04  1.00000005E-04  1.00000005E-04  1.00000005E-04
    1.00000005E-04  1.00000005E-04  1.00000005E-04  1.00000005E-04  1.00000005E-04  1.00000005E-04  1.00000005E-04  1.00000005E-04  1.00000005E-04  1.00000005E-04  1.00000005E-04  1.00000005E-04  1.00000005E-04  1.00000005E-04  1.00000005E-04  1.00000005E-04  1.00000005E-04  1.00000005E-04  1.00000005E-04  1.00000005E-04
    1.00000005E-04  1.00000005E-04  1.00000005E-04  1.00000005E-04  1.00000005E-04  1.00000005E-04  1.00000005E-04  1.00000005E-04  1.00000005E-04  1.00000005E-04  1.00000005E-04  1.00000005E-04  1.00000005E-04  1.00000005E-04  1.00000005E-04  1.00000005E-04  1.00000005E-04  1.00000005E-04  1.00000005E-04  1.00000005E-04
    1.00000005E-04  1.00000005E-04  1.00000005E-04  1.00000005E-04  1.00000005E-04  1.00000005E-04  1.00000005E-04  1.00000005E-04  1.00000005E-04  1.00000005E-04  1.00000005E-04  1.00000005E-04  1.00000005E-04  1.00000005E-04  1.00000005E-04  1.00000005E-04  1.00000005E-04  1.00000005E-04  1.00000005E-04  1.00000005E-04
    1.00000005E-04  1.00000005E-04  1.00000005E-04       0.00131360       0.00130001  1.00000005E-04  1.00000005E-04  1.00000005E-04  1.00000005E-04  1.00000005E-04  1.00000005E-04  1.00000005E-04  1.00000005E-04  1.00000005E-04  1.00000005E-04  1.00000005E-04  1.00000005E-04  1.00000005E-04  1.00000005E-04  1.00000005E-04
    1.00000005E-04  1.00000005E-04  1.00000005E-04  1.00000005E-04  1.00000005E-04  1.00000005E-04  1.00000005E-04  1.00000005E-04  1.00000005E-04  1.00000005E-04  1.00000005E-04  1.00000005E-04  1.00000005E-04  1.00000005E-04  1.00000005E-04  1.00000005E-04  1.00000005E-04  1.00000005E-04  1.00000005E-04  1.00000005E-04
    1.00000005E-04  1.00000005E-04  1.00000005E-04  1.00000005E-04  1.00000005E-04  1.00000005E-04  1.00000005E-04  1.00000005E-04  1.00000005E-04  1.00000005E-04  1.00000005E-04  1.00000005E-04  1.00000005E-04  1.00000005E-04  1.00000005E-04  1.00000005E-04  1.00000005E-04  1.00000005E-04  1.00000005E-04  1.00000005E-04