BEGIN options
  SAVE_FLOWS
END options

BEGIN dimensions
  MAXBOUND  108
END dimensions

BEGIN period  1
  1 64 7     173.76487002
  1 63 9     168.01324346
  1 63 10     164.64615420
  1 63 11     161.20790781
  1 63 12     158.35463571
  1 62 12     154.65067379
  1 61 13     148.47738696
  1 61 14     144.50778402
  1 61 15     141.27157684
  1 60 15     139.56132231
  1 60 16     137.60128875
  1 60 17     133.75677252
  1 59 17     126.83930517
  1 59 18     125.32838393
  1 58 18     123.86238420
  1 58 19     121.76611309
  1 57 19     120.32608679
  1 57 20     118.50899003
  1 57 21     116.09013102
  1 57 22     113.96404506
  1 57 23     111.80911128
  1 57 24     110.43030581
  1 56 24     109.17990672
  1 56 25     107.06703135
  1 56 26     104.84685756
  1 55 26     103.19939809
  1 56 27     101.52041520
  1 56 28      99.29428327
  1 56 29      97.01252441
  1 56 30      94.75955798
  1 56 31      93.54728097
  1 57 31      92.33642461
  1 57 32      90.07522854
  1 57 33      87.81484297
  1 57 34      85.54546285
  1 57 35      83.39956732
  1 58 35      82.21858573
  1 58 36      78.85764718
  1 58 37      76.67776624
  1 58 38      74.78768962
  1 59 38      73.82964292
  1 59 39      72.60703007
  1 59 40      70.71186286
  1 59 41      67.06077283
  1 59 42      65.46207468
  1 59 43      63.85515992
  1 59 44      62.27917623
  1 59 45      60.66358091
  1 59 46      58.97424591
  1 59 47      57.26084617
  1 59 48      55.60766287
  1 59 49      54.04194776
  1 59 50      52.76725655
  1 58 50      51.99018302
  1 58 51      50.92414101
  1 58 52      49.34697784
  1 58 53      47.78634497
  1 58 54      46.23638093
  1 58 55      44.67059177
  1 58 56      43.57906409
  1 57 56      42.47458469
  1 57 57      40.90615960
  1 57 58      39.35531783
  1 57 59      38.15627930
  1 56 59      37.30677551
  1 56 60      36.07852287
  1 56 61      34.53606283
  1 56 62      33.01517289
  1 56 63      31.48138461
  1 56 64      29.94005049
  1 56 65      28.38077273
  1 55 65      27.57578542
  1 55 66      26.77846135
  1 55 67      23.88489629
  1 55 68      22.74488827
  1 55 69      21.60523963
  1 54 69      21.02541108
  1 54 70      20.38332692
  1 54 71      19.19679338
  1 54 72      18.05747098
  1 54 73      17.37617139
  1 53 73      16.79382604
  1 53 74      15.76896939
  1 53 75      13.61197591
  1 53 76      12.80079795
  1 53 77      12.01109405
  1 53 78      11.21073120
  1 53 79      10.42005876
  1 53 80       9.64830187
  1 53 81       8.87915792
  1 53 82       8.10317417
  1 53 83       7.32632719
  1 53 84       5.93383901
  1 53 85       5.50094105
  1 53 86       5.05906255
  1 53 87       4.68948058
  1 54 87       4.41311840
  1 54 88       4.06328145
  1 54 89       3.74693939
  1 53 89       3.42671713
  1 53 90       2.99089427
  1 53 91       2.54835485
  1 53 92       2.18338472
  1 54 92       1.91657677
  1 54 93       1.55677014
  1 54 94       1.11126999
  1 53 94       0.86232524
  1 52 95       0.12788755
END period  1

