BEGIN options
  SAVE_FLOWS
END options

BEGIN dimensions
  MAXBOUND  20
END dimensions

BEGIN period  1
  1 1 1      10.00000000
  1 1 10       0.00000000
  1 2 1      10.00000000
  1 2 10       0.00000000
  1 3 1      10.00000000
  1 3 10       0.00000000
  1 4 1      10.00000000
  1 4 10       0.00000000
  1 5 1      10.00000000
  1 5 10       0.00000000
  1 6 1      10.00000000
  1 6 10       0.00000000
  1 7 1      10.00000000
  1 7 10       0.00000000
  1 8 1      10.00000000
  1 8 10       0.00000000
  1 9 1      10.00000000
  1 9 10       0.00000000
  1 10 1      10.00000000
  1 10 10       0.00000000
END period  1

