pcf
* control data
             restart          estimation
        16        64         1         0         1         0
         1         1              single               point         1         0         0          noobsreref
   2.000000E+01  -3.000000E+00   3.000000E-01   1.000000E-02        -7       999          lamforgive        noderforgive
   1.000000E+01   1.000000E+01   1.000000E-03         0         0
   1.000000E-01         1   1.100000E+00               noaui          nosenreuse        noboundscale
         0   1.000000E-02         3         3   1.000000E-02         3   0.000000E+00         1  -1.000000E+00
         0         0         0         0             jcosave          verboserec          jcosaveitn          reisaveitn          parsaveitn        noparsaverun
* singular value decomposition
         1
  10000000    1.000000E-06
1
* parameter groups
 kp_inst:0               relative              1.0000000000E-02       0  switch                2.0000000000E+00       parabolic              1.0000000000E-05       5.0000000000E-01       smaller              
* parameter data
 kp_inst:0_i:1_j:1      log                    factor                5.2580534917E+00      1.0000000000E-01      1.0000000000E+01       kp_inst:0             1.0000000000E+00      0.0000000000E+00       1          
 kp_inst:0_i:1_j:3      log                    factor                3.5616152319E-01      1.0000000000E-01      1.0000000000E+01       kp_inst:0             1.0000000000E+00      0.0000000000E+00       1          
 kp_inst:0_i:1_j:5      log                    factor                1.0000000000E-01      1.0000000000E-01      1.0000000000E+01       kp_inst:0             1.0000000000E+00      0.0000000000E+00       1          
 kp_inst:0_i:1_j:7      log                    factor                2.8225718115E-01      1.0000000000E-01      1.0000000000E+01       kp_inst:0             1.0000000000E+00      0.0000000000E+00       1          
 kp_inst:0_i:3_j:1      log                    factor                1.0000000000E+01      1.0000000000E-01      1.0000000000E+01       kp_inst:0             1.0000000000E+00      0.0000000000E+00       1          
 kp_inst:0_i:3_j:3      log                    factor                1.3259526023E-01      1.0000000000E-01      1.0000000000E+01       kp_inst:0             1.0000000000E+00      0.0000000000E+00       1          
 kp_inst:0_i:3_j:5      log                    factor                1.0950796286E+00      1.0000000000E-01      1.0000000000E+01       kp_inst:0             1.0000000000E+00      0.0000000000E+00       1          
 kp_inst:0_i:3_j:7      log                    factor                1.0000000000E+01      1.0000000000E-01      1.0000000000E+01       kp_inst:0             1.0000000000E+00      0.0000000000E+00       1          
 kp_inst:0_i:5_j:1      log                    factor                1.0000000000E-01      1.0000000000E-01      1.0000000000E+01       kp_inst:0             1.0000000000E+00      0.0000000000E+00       1          
 kp_inst:0_i:5_j:3      log                    factor                1.0000000000E-01      1.0000000000E-01      1.0000000000E+01       kp_inst:0             1.0000000000E+00      0.0000000000E+00       1          
 kp_inst:0_i:5_j:5      log                    factor                1.0000000000E-01      1.0000000000E-01      1.0000000000E+01       kp_inst:0             1.0000000000E+00      0.0000000000E+00       1          
 kp_inst:0_i:5_j:7      log                    factor                1.0000000000E-01      1.0000000000E-01      1.0000000000E+01       kp_inst:0             1.0000000000E+00      0.0000000000E+00       1          
 kp_inst:0_i:7_j:1      log                    factor                8.2601056090E-01      1.0000000000E-01      1.0000000000E+01       kp_inst:0             1.0000000000E+00      0.0000000000E+00       1          
 kp_inst:0_i:7_j:3      log                    factor                2.3024966129E-01      1.0000000000E-01      1.0000000000E+01       kp_inst:0             1.0000000000E+00      0.0000000000E+00       1          
 kp_inst:0_i:7_j:5      log                    factor                1.3262548955E-01      1.0000000000E-01      1.0000000000E+01       kp_inst:0             1.0000000000E+00      0.0000000000E+00       1          
 kp_inst:0_i:7_j:7      log                    factor                1.9977631591E+00      1.0000000000E-01      1.0000000000E+01       kp_inst:0             1.0000000000E+00      0.0000000000E+00       1          
* observation groups
obgnme               
* observation data
 hds_usecol:0_1_1_time:1.0  9.7813600670E+00      1.0000000000E+00       obgnme               
 hds_usecol:0_1_2_time:1.0  9.4730364600E+00      1.0000000000E+00       obgnme               
 hds_usecol:0_1_3_time:1.0  9.1494857390E+00      1.0000000000E+00       obgnme               
 hds_usecol:0_1_4_time:1.0  6.6655515420E+00      1.0000000000E+00       obgnme               
 hds_usecol:0_1_5_time:1.0  3.6143132980E+00      1.0000000000E+00       obgnme               
 hds_usecol:0_1_6_time:1.0  2.6759603800E+00      1.0000000000E+00       obgnme               
 hds_usecol:0_1_7_time:1.0  1.1489764760E+00      1.0000000000E+00       obgnme               
 hds_usecol:0_1_8_time:1.0  4.2945689900E-01      1.0000000000E+00       obgnme               
 hds_usecol:0_2_1_time:1.0  9.7592725940E+00      1.0000000000E+00       obgnme               
 hds_usecol:0_2_2_time:1.0  9.5103027450E+00      1.0000000000E+00       obgnme               
 hds_usecol:0_2_3_time:1.0  8.9352529650E+00      1.0000000000E+00       obgnme               
 hds_usecol:0_2_4_time:1.0  5.5834348630E+00      1.0000000000E+00       obgnme               
 hds_usecol:0_2_5_time:1.0  2.2897427540E+00      1.0000000000E+00       obgnme               
 hds_usecol:0_2_6_time:1.0  1.7752308520E+00      1.0000000000E+00       obgnme               
 hds_usecol:0_2_7_time:1.0  1.2773656650E+00      1.0000000000E+00       obgnme               
 hds_usecol:0_2_8_time:1.0  5.5757595470E-01      1.0000000000E+00       obgnme               
 hds_usecol:0_3_1_time:1.0  9.7000497780E+00      1.0000000000E+00       obgnme               
 hds_usecol:0_3_2_time:1.0  9.4047327290E+00      1.0000000000E+00       obgnme               
 hds_usecol:0_3_3_time:1.0  8.9309304100E+00      1.0000000000E+00       obgnme               
 hds_usecol:0_3_4_time:1.0  5.0219014100E+00      1.0000000000E+00       obgnme               
 hds_usecol:0_3_5_time:1.0  2.1104968910E+00      1.0000000000E+00       obgnme               
 hds_usecol:0_3_6_time:1.0  1.7196975280E+00      1.0000000000E+00       obgnme               
 hds_usecol:0_3_7_time:1.0  1.5299035170E+00      1.0000000000E+00       obgnme               
 hds_usecol:0_3_8_time:1.0  7.2124200260E-01      1.0000000000E+00       obgnme               
 hds_usecol:0_4_1_time:1.0  9.6752765890E+00      1.0000000000E+00       obgnme               
 hds_usecol:0_4_2_time:1.0  9.3157226250E+00      1.0000000000E+00       obgnme               
 hds_usecol:0_4_3_time:1.0  7.3393061550E+00      1.0000000000E+00       obgnme               
 hds_usecol:0_4_4_time:1.0  3.8284462380E+00      1.0000000000E+00       obgnme               
 hds_usecol:0_4_5_time:1.0  2.3175206570E+00      1.0000000000E+00       obgnme               
 hds_usecol:0_4_6_time:1.0  1.7750440940E+00      1.0000000000E+00       obgnme               
 hds_usecol:0_4_7_time:1.0  1.4124436580E+00      1.0000000000E+00       obgnme               
 hds_usecol:0_4_8_time:1.0  7.6807222490E-01      1.0000000000E+00       obgnme               
 hds_usecol:0_5_1_time:1.0  9.7442618200E+00      1.0000000000E+00       obgnme               
 hds_usecol:0_5_2_time:1.0  9.0293831230E+00      1.0000000000E+00       obgnme               
 hds_usecol:0_5_3_time:1.0  7.0109923350E+00      1.0000000000E+00       obgnme               
 hds_usecol:0_5_4_time:1.0  4.5358682680E+00      1.0000000000E+00       obgnme               
 hds_usecol:0_5_5_time:1.0  2.9733811550E+00      1.0000000000E+00       obgnme               
 hds_usecol:0_5_6_time:1.0  1.6927263670E+00      1.0000000000E+00       obgnme               
 hds_usecol:0_5_7_time:1.0  1.0546783080E+00      1.0000000000E+00       obgnme               
 hds_usecol:0_5_8_time:1.0  3.7904613840E-01      1.0000000000E+00       obgnme               
 hds_usecol:0_6_1_time:1.0  9.3622189460E+00      1.0000000000E+00       obgnme               
 hds_usecol:0_6_2_time:1.0  8.2896413590E+00      1.0000000000E+00       obgnme               
 hds_usecol:0_6_3_time:1.0  7.6473319310E+00      1.0000000000E+00       obgnme               
 hds_usecol:0_6_4_time:1.0  5.4088839310E+00      1.0000000000E+00       obgnme               
 hds_usecol:0_6_5_time:1.0  3.2359258120E+00      1.0000000000E+00       obgnme               
 hds_usecol:0_6_6_time:1.0  2.0545765700E+00      1.0000000000E+00       obgnme               
 hds_usecol:0_6_7_time:1.0  1.0082107270E+00      1.0000000000E+00       obgnme               
 hds_usecol:0_6_8_time:1.0  2.9003796560E-01      1.0000000000E+00       obgnme               
 hds_usecol:0_7_1_time:1.0  9.3026741390E+00      1.0000000000E+00       obgnme               
 hds_usecol:0_7_2_time:1.0  8.1815486480E+00      1.0000000000E+00       obgnme               
 hds_usecol:0_7_3_time:1.0  7.5770294430E+00      1.0000000000E+00       obgnme               
 hds_usecol:0_7_4_time:1.0  5.2227377280E+00      1.0000000000E+00       obgnme               
 hds_usecol:0_7_5_time:1.0  2.5656587370E+00      1.0000000000E+00       obgnme               
 hds_usecol:0_7_6_time:1.0  1.9553517700E+00      1.0000000000E+00       obgnme               
 hds_usecol:0_7_7_time:1.0  1.1440133470E+00      1.0000000000E+00       obgnme               
 hds_usecol:0_7_8_time:1.0  4.5090415970E-01      1.0000000000E+00       obgnme               
 hds_usecol:0_8_1_time:1.0  8.8547878280E+00      1.0000000000E+00       obgnme               
 hds_usecol:0_8_2_time:1.0  7.7999192070E+00      1.0000000000E+00       obgnme               
 hds_usecol:0_8_3_time:1.0  7.3205109310E+00      1.0000000000E+00       obgnme               
 hds_usecol:0_8_4_time:1.0  5.3792685610E+00      1.0000000000E+00       obgnme               
 hds_usecol:0_8_5_time:1.0  2.6806327120E+00      1.0000000000E+00       obgnme               
 hds_usecol:0_8_6_time:1.0  2.1564757570E+00      1.0000000000E+00       obgnme               
 hds_usecol:0_8_7_time:1.0  1.4541582780E+00      1.0000000000E+00       obgnme               
 hds_usecol:0_8_8_time:1.0  6.0104780980E-01      1.0000000000E+00       obgnme               
* model command line
python forward_run.py
* model input/output
kp_inst0pp.dat.tpl kp_inst0pp.dat
.\heads.csv.ins .\heads.csv
++n_iter_base(-1)
++n_iter_super(3)
++glm_num_reals(50)
++parcov(mf6_test_1.prior.cov)
++base_jacobian(mf6_test_1.jcb)
