BEGIN options
  DIGITS  10
  PRINT_INPUT
END options

BEGIN continuous  FILEOUT  heads.csv
  0_1_1  HEAD  1 2 2
  0_1_2  HEAD  1 2 3
  0_1_3  HEAD  1 2 4
  0_1_4  HEAD  1 2 5
  0_1_5  HEAD  1 2 6
  0_1_6  HEAD  1 2 7
  0_1_7  HEAD  1 2 8
  0_1_8  HEAD  1 2 9
  0_2_1  HEAD  1 3 2
  0_2_2  HEAD  1 3 3
  0_2_3  HEAD  1 3 4
  0_2_4  HEAD  1 3 5
  0_2_5  HEAD  1 3 6
  0_2_6  HEAD  1 3 7
  0_2_7  HEAD  1 3 8
  0_2_8  HEAD  1 3 9
  0_3_1  HEAD  1 4 2
  0_3_2  HEAD  1 4 3
  0_3_3  HEAD  1 4 4
  0_3_4  HEAD  1 4 5
  0_3_5  HEAD  1 4 6
  0_3_6  HEAD  1 4 7
  0_3_7  HEAD  1 4 8
  0_3_8  HEAD  1 4 9
  0_4_1  HEAD  1 5 2
  0_4_2  HEAD  1 5 3
  0_4_3  HEAD  1 5 4
  0_4_4  HEAD  1 5 5
  0_4_5  HEAD  1 5 6
  0_4_6  HEAD  1 5 7
  0_4_7  HEAD  1 5 8
  0_4_8  HEAD  1 5 9
  0_5_1  HEAD  1 6 2
  0_5_2  HEAD  1 6 3
  0_5_3  HEAD  1 6 4
  0_5_4  HEAD  1 6 5
  0_5_5  HEAD  1 6 6
  0_5_6  HEAD  1 6 7
  0_5_7  HEAD  1 6 8
  0_5_8  HEAD  1 6 9
  0_6_1  HEAD  1 7 2
  0_6_2  HEAD  1 7 3
  0_6_3  HEAD  1 7 4
  0_6_4  HEAD  1 7 5
  0_6_5  HEAD  1 7 6
  0_6_6  HEAD  1 7 7
  0_6_7  HEAD  1 7 8
  0_6_8  HEAD  1 7 9
  0_7_1  HEAD  1 8 2
  0_7_2  HEAD  1 8 3
  0_7_3  HEAD  1 8 4
  0_7_4  HEAD  1 8 5
  0_7_5  HEAD  1 8 6
  0_7_6  HEAD  1 8 7
  0_7_7  HEAD  1 8 8
  0_7_8  HEAD  1 8 9
  0_8_1  HEAD  1 9 2
  0_8_2  HEAD  1 9 3
  0_8_3  HEAD  1 9 4
  0_8_4  HEAD  1 9 5
  0_8_5  HEAD  1 9 6
  0_8_6  HEAD  1 9 7
  0_8_7  HEAD  1 9 8
  0_8_8  HEAD  1 9 9
END continuous  FILEOUT  heads.csv

