BEGIN options
  SAVE_FLOWS
  SAVE_SPECIFIC_DISCHARGE
END options

BEGIN griddata
  icelltype
    CONSTANT  0
  k
    INTERNAL  FACTOR  1.0
      9.82059311E-04  9.82059311E-04  9.82059311E-04  9.82059311E-04  9.82059311E-04  9.82059311E-04  9.82059311E-04  9.82059311E-04  9.82059311E-04  9.82059311E-04  9.82059311E-04  9.82059311E-04  9.82059311E-04  9.82059311E-04  9.82059311E-04  9.82059311E-04  9.82059311E-04  9.82059311E-04  9.82059311E-04  9.82059311E-04
      9.82059311E-04  9.82059311E-04  9.82059311E-04  9.82059311E-04  9.82059311E-04  9.82059311E-04  9.82059311E-04  9.82059311E-04  9.82059311E-04  9.82059311E-04  9.82059311E-04  9.82059311E-04  9.82059311E-04  9.82059311E-04  9.82059311E-04  9.82059311E-04  9.82059311E-04  9.82059311E-04  9.82059311E-04  9.82059311E-04
      9.82059311E-04  9.82059311E-04  9.82059311E-04  9.82059311E-04  9.82059311E-04  9.82059311E-04  9.82059311E-04  9.82059311E-04  9.82059311E-04  9.82059311E-04  9.82059311E-04  9.82059311E-04  9.82059311E-04  9.82059311E-04  9.82059311E-04  9.82059311E-04  9.82059311E-04  9.82059311E-04  9.82059311E-04  9.82059311E-04
      9.82059311E-04  9.82059311E-04  9.82059311E-04  9.82059311E-04  9.82059311E-04  9.82059311E-04  9.82059311E-04  9.82059311E-04  9.82059311E-04  9.82059311E-04  9.82059311E-04  9.82059311E-04  9.82059311E-04  9.82059311E-04  9.82059311E-04  9.82059311E-04  9.82059311E-04  9.82059311E-04  9.82059311E-04  9.82059311E-04
      9.82059311E-04  9.82059311E-04  9.82059311E-04  9.82059311E-04  9.82059311E-04  9.82059311E-04  9.82059311E-04  9.82059311E-04  9.82059311E-04  9.82059311E-04  9.82059311E-04  9.82059311E-04  9.82059311E-04  9.82059311E-04  9.82059311E-04  9.82059311E-04  9.82059311E-04  9.82059311E-04  9.82059311E-04  9.82059311E-04
      9.82059311E-04  9.82059311E-04  9.82059311E-04  9.82059311E-04  9.82059311E-04  9.82059311E-04  9.82059311E-04  9.82059311E-04  9.82059311E-04  9.82059311E-04  9.82059311E-04  9.82059311E-04  9.82059311E-04  9.82059311E-04  9.82059311E-04  9.82059311E-04  9.82059311E-04  9.82059311E-04  9.82059311E-04  9.82059311E-04
      9.82059311E-04  9.82059311E-04  9.82059311E-04  9.82059311E-04  9.82059311E-04  9.82059311E-04  9.82059311E-04  9.82059311E-04  9.82059311E-04  9.82059311E-04  9.82059311E-04  9.82059311E-04  9.82059311E-04  9.82059311E-04  9.82059311E-04  9.82059311E-04  9.82059311E-04  9.82059311E-04  9.82059311E-04  9.82059311E-04
      9.82059311E-04  9.82059311E-04  9.82059311E-04  9.82059311E-04  9.82059311E-04  9.82059311E-04  9.82059311E-04  9.82059311E-04  9.82059311E-04  9.82059311E-04
      9.82059311E-04  9.82059311E-04  9.82059311E-04  9.82059311E-04  9.82059311E-04  9.82059311E-04  9.82059311E-04  9.82059311E-04  9.82059311E-04  9.82059311E-04  9.82059311E-04  9.82059311E-04  9.82059311E-04  9.82059311E-04  9.82059311E-04  9.82059311E-04  9.82059311E-04  9.82059311E-04  9.82059311E-04  9.82059311E-04
      9.82059311E-04  9.82059311E-04  9.82059311E-04  9.82059311E-04  9.82059311E-04  9.82059311E-04  9.82059311E-04  9.82059311E-04  9.82059311E-04  9.82059311E-04  9.82059311E-04  9.82059311E-04  9.82059311E-04  9.82059311E-04  9.82059311E-04  9.82059311E-04  9.82059311E-04  9.82059311E-04  9.82059311E-04  9.82059311E-04
      9.82059311E-04  9.82059311E-04  9.82059311E-04  9.82059311E-04  9.82059311E-04  9.82059311E-04  9.82059311E-04  9.82059311E-04  9.82059311E-04  9.82059311E-04  9.82059311E-04  9.82059311E-04  9.82059311E-04  9.82059311E-04  9.82059311E-04  9.82059311E-04  9.82059311E-04  9.82059311E-04  9.82059311E-04  9.82059311E-04
      9.82059311E-04  9.82059311E-04  9.82059311E-04  9.82059311E-04  9.82059311E-04  9.82059311E-04  9.82059311E-04  9.82059311E-04  9.82059311E-04  9.82059311E-04  9.82059311E-04  9.82059311E-04  9.82059311E-04  9.82059311E-04  9.82059311E-04  9.82059311E-04  9.82059311E-04  9.82059311E-04  9.82059311E-04  9.82059311E-04
      9.82059311E-04  9.82059311E-04  9.82059311E-04  9.82059311E-04  9.82059311E-04  9.82059311E-04  9.82059311E-04  9.82059311E-04  9.82059311E-04  9.82059311E-04  9.82059311E-04  9.82059311E-04  9.82059311E-04  9.82059311E-04  9.82059311E-04  9.82059311E-04  9.82059311E-04  9.82059311E-04  9.82059311E-04  9.82059311E-04
      9.82059311E-04  9.82059311E-04  9.82059311E-04  9.82059311E-04  9.82059311E-04  9.82059311E-04  9.82059311E-04  9.82059311E-04  9.82059311E-04  9.82059311E-04  9.82059311E-04  9.82059311E-04  9.82059311E-04  9.82059311E-04  9.82059311E-04  9.82059311E-04  9.82059311E-04  9.82059311E-04  9.82059311E-04  9.82059311E-04
      9.82059311E-04  9.82059311E-04  9.82059311E-04  9.82059311E-04  9.82059311E-04  9.82059311E-04  9.82059311E-04  9.82059311E-04  9.82059311E-04  9.82059311E-04  9.82059311E-04  9.82059311E-04  9.82059311E-04  9.82059311E-04  9.82059311E-04  9.82059311E-04  9.82059311E-04  9.82059311E-04  9.82059311E-04  9.82059311E-04
      9.82059311E-04  9.82059311E-04  9.82059311E-04  9.82059311E-04  9.82059311E-04  9.82059311E-04  9.82059311E-04  9.82059311E-04  9.82059311E-04  9.82059311E-04
      9.82059311E-04  9.82059311E-04  9.82059311E-04  9.82059311E-04  9.82059311E-04  9.82059311E-04  9.82059311E-04  9.82059311E-04  9.82059311E-04  9.82059311E-04  9.82059311E-04  9.82059311E-04  9.82059311E-04  9.82059311E-04  9.82059311E-04  9.82059311E-04  9.82059311E-04  9.82059311E-04  9.82059311E-04  9.82059311E-04
      9.82059311E-04  9.82059311E-04  9.82059311E-04  9.82059311E-04  9.82059311E-04  9.82059311E-04  9.82059311E-04  9.82059311E-04  9.82059311E-04  9.82059311E-04  9.82059311E-04  9.82059311E-04  9.82059311E-04  9.82059311E-04  9.82059311E-04  9.82059311E-04  9.82059311E-04  9.82059311E-04  9.82059311E-04  9.82059311E-04
      9.82059311E-04  9.82059311E-04  9.82059311E-04  9.82059311E-04  9.82059311E-04  9.82059311E-04  9.82059311E-04  9.82059311E-04  9.82059311E-04  9.82059311E-04  9.82059311E-04  9.82059311E-04  9.82059311E-04  9.82059311E-04  9.82059311E-04  9.82059311E-04  9.82059311E-04  9.82059311E-04  9.82059311E-04  9.82059311E-04
      9.82059311E-04  9.82059311E-04  9.82059311E-04  9.82059311E-04  9.82059311E-04  9.82059311E-04  9.82059311E-04  9.82059311E-04  9.82059311E-04  9.82059311E-04  9.82059311E-04  9.82059311E-04  9.82059311E-04  9.82059311E-04  9.82059311E-04  9.82059311E-04  9.82059311E-04  9.82059311E-04  9.82059311E-04  9.82059311E-04
      9.82059311E-04  9.82059311E-04  9.82059311E-04  9.82059311E-04  9.82059311E-04  9.82059311E-04  9.82059311E-04  9.82059311E-04  9.82059311E-04  9.82059311E-04  9.82059311E-04  9.82059311E-04  9.82059311E-04  9.82059311E-04  9.82059311E-04  9.82059311E-04  9.82059311E-04  9.82059311E-04  9.82059311E-04  9.82059311E-04
      9.82059311E-04  9.82059311E-04  9.82059311E-04  9.82059311E-04  9.82059311E-04  9.82059311E-04  9.82059311E-04  9.82059311E-04  9.82059311E-04  9.82059311E-04  9.82059311E-04  9.82059311E-04  9.82059311E-04  9.82059311E-04  9.82059311E-04  9.82059311E-04  9.82059311E-04  9.82059311E-04  9.82059311E-04  9.82059311E-04
      9.82059311E-04  9.82059311E-04  9.82059311E-04  9.82059311E-04  9.82059311E-04  9.82059311E-04  9.82059311E-04  9.82059311E-04  9.82059311E-04  9.82059311E-04  9.82059311E-04  9.82059311E-04  9.82059311E-04  9.82059311E-04  9.82059311E-04  9.82059311E-04  9.82059311E-04  9.82059311E-04  9.82059311E-04  9.82059311E-04
      9.82059311E-04  9.82059311E-04  9.82059311E-04  9.82059311E-04  9.82059311E-04  9.82059311E-04  9.82059311E-04  9.82059311E-04  9.82059311E-04  9.82059311E-04
      9.82059311E-04  9.82059311E-04  9.82059311E-04  9.82059311E-04  9.82059311E-04  9.82059311E-04  9.82059311E-04  9.82059311E-04  9.82059311E-04  9.82059311E-04  9.82059311E-04  9.82059311E-04  9.82059311E-04  9.82059311E-04  9.82059311E-04  9.82059311E-04  9.82059311E-04  9.82059311E-04  9.82059311E-04  9.82059311E-04
      9.82059311E-04  9.82059311E-04  9.82059311E-04  9.82059311E-04  9.82059311E-04  9.82059311E-04  9.82059311E-04  9.82059311E-04  9.82059311E-04  9.82059311E-04  9.82059311E-04  9.82059311E-04  9.82059311E-04  9.82059311E-04  9.82059311E-04  9.82059311E-04  9.82059311E-04  9.82059311E-04  9.82059311E-04  9.82059311E-04
      9.82059311E-04  9.82059311E-04  9.82059311E-04  9.82059311E-04  9.82059311E-04  9.82059311E-04  9.82059311E-04  9.82059311E-04  9.82059311E-04  9.82059311E-04  9.82059311E-04  9.82059311E-04  9.82059311E-04  9.82059311E-04  9.82059311E-04  9.82059311E-04  9.82059311E-04  9.82059311E-04  9.82059311E-04  9.82059311E-04
      9.82059311E-04  9.82059311E-04  9.82059311E-04  9.82059311E-04  9.82059311E-04  9.82059311E-04  9.82059311E-04  9.82059311E-04  9.82059311E-04  9.82059311E-04  9.82059311E-04  9.82059311E-04  9.82059311E-04  9.82059311E-04  9.82059311E-04  9.82059311E-04  9.82059311E-04  9.82059311E-04  9.82059311E-04  9.82059311E-04
      9.82059311E-04  9.82059311E-04  9.82059311E-04  9.82059311E-04  9.82059311E-04  9.82059311E-04  9.82059311E-04  9.82059311E-04  9.82059311E-04  9.82059311E-04  9.82059311E-04  9.82059311E-04  9.82059311E-04  9.82059311E-04  9.82059311E-04  9.82059311E-04  9.82059311E-04  9.82059311E-04  9.82059311E-04  9.82059311E-04
      9.82059311E-04  9.82059311E-04  9.82059311E-04  9.82059311E-04  9.82059311E-04  9.82059311E-04  9.82059311E-04  9.82059311E-04  9.82059311E-04  9.82059311E-04  9.82059311E-04  9.82059311E-04  9.82059311E-04  9.82059311E-04  9.82059311E-04  9.82059311E-04  9.82059311E-04  9.82059311E-04  9.82059311E-04  9.82059311E-04
      9.82059311E-04  9.82059311E-04  9.82059311E-04  9.82059311E-04  9.82059311E-04  9.82059311E-04  9.82059311E-04  9.82059311E-04  9.82059311E-04  9.82059311E-04  9.82059311E-04  9.82059311E-04  9.82059311E-04  9.82059311E-04  9.82059311E-04  9.82059311E-04  9.82059311E-04  9.82059311E-04  9.82059311E-04  9.82059311E-04
      9.82059311E-04  9.82059311E-04  9.82059311E-04  9.82059311E-04  9.82059311E-04  9.82059311E-04  9.82059311E-04  9.82059311E-04  9.82059311E-04  9.82059311E-04
      9.82059311E-04  9.82059311E-04  9.82059311E-04  9.82059311E-04  9.82059311E-04  9.82059311E-04  9.82059311E-04  9.82059311E-04  9.82059311E-04  9.82059311E-04  9.82059311E-04  9.82059311E-04  9.82059311E-04  9.82059311E-04  9.82059311E-04  9.82059311E-04  9.82059311E-04  9.82059311E-04  9.82059311E-04  9.82059311E-04
      9.82059311E-04  9.82059311E-04  9.82059311E-04  9.82059311E-04  9.82059311E-04  9.82059311E-04  9.82059311E-04  9.82059311E-04  9.82059311E-04  9.82059311E-04  9.82059311E-04  9.82059311E-04  9.82059311E-04  9.82059311E-04  9.82059311E-04  9.82059311E-04  9.82059311E-04  9.82059311E-04  9.82059311E-04  9.82059311E-04
      9.82059311E-04  9.82059311E-04  9.82059311E-04  9.82059311E-04  9.82059311E-04  9.82059311E-04  9.82059311E-04  9.82059311E-04  9.82059311E-04  9.82059311E-04  9.82059311E-04  9.82059311E-04  9.82059311E-04  9.82059311E-04  9.82059311E-04  9.82059311E-04  9.82059311E-04  9.82059311E-04  9.82059311E-04  9.82059311E-04
      9.82059311E-04  9.82059311E-04  9.82059311E-04  9.82059311E-04  9.82059311E-04  9.82059311E-04  9.82059311E-04  9.82059311E-04  9.82059311E-04  9.82059311E-04  9.82059311E-04  9.82059311E-04  9.82059311E-04  9.82059311E-04  9.82059311E-04  9.82059311E-04  9.82059311E-04  9.82059311E-04  9.82059311E-04  9.82059311E-04
      9.82059311E-04  9.82059311E-04  9.82059311E-04  9.82059311E-04  9.82059311E-04  9.82059311E-04  9.82059311E-04  9.82059311E-04  9.82059311E-04  9.82059311E-04  9.82059311E-04  9.82059311E-04  9.82059311E-04  9.82059311E-04  9.82059311E-04  9.82059311E-04  9.82059311E-04  9.82059311E-04  9.82059311E-04  9.82059311E-04
      9.82059311E-04  9.82059311E-04  9.82059311E-04  9.82059311E-04  9.82059311E-04  9.82059311E-04  9.82059311E-04  9.82059311E-04  9.82059311E-04  9.82059311E-04  9.82059311E-04  9.82059311E-04  9.82059311E-04  9.82059311E-04  9.82059311E-04  9.82059311E-04  9.82059311E-04  9.82059311E-04  9.82059311E-04  9.82059311E-04
      9.82059311E-04  9.82059311E-04  9.82059311E-04  9.82059311E-04  9.82059311E-04  9.82059311E-04  9.82059311E-04  9.82059311E-04  9.82059311E-04  9.82059311E-04  9.82059311E-04  9.82059311E-04  9.82059311E-04  9.82059311E-04  9.82059311E-04  9.82059311E-04  9.82059311E-04  9.82059311E-04  9.82059311E-04  9.82059311E-04
      9.82059311E-04  9.82059311E-04  9.82059311E-04  9.82059311E-04  9.82059311E-04  9.82059311E-04  9.82059311E-04  9.82059311E-04  9.82059311E-04  9.82059311E-04
      9.82059311E-04  9.82059311E-04  9.82059311E-04  9.82059311E-04  9.82059311E-04  9.82059311E-04  9.82059311E-04  9.82059311E-04  9.82059311E-04  9.82059311E-04  9.82059311E-04  9.82059311E-04  9.82059311E-04  9.82059311E-04  9.82059311E-04  9.82059311E-04  9.82059311E-04  9.82059311E-04  9.82059311E-04  9.82059311E-04
      9.82059311E-04  9.82059311E-04  9.82059311E-04  9.82059311E-04  9.82059311E-04  9.82059311E-04  9.82059311E-04  9.82059311E-04  9.82059311E-04  9.82059311E-04  9.82059311E-04  9.82059311E-04  9.82059311E-04  9.82059311E-04  9.82059311E-04  9.82059311E-04  9.82059311E-04  9.82059311E-04  9.82059311E-04  9.82059311E-04
      9.82059311E-04  9.82059311E-04  9.82059311E-04  9.82059311E-04  9.82059311E-04  9.82059311E-04  9.82059311E-04  9.82059311E-04  9.82059311E-04  9.82059311E-04  9.82059311E-04  9.82059311E-04  9.82059311E-04  9.82059311E-04  9.82059311E-04  9.82059311E-04  9.82059311E-04  9.82059311E-04  9.82059311E-04  9.82059311E-04
      9.82059311E-04  9.82059311E-04  9.82059311E-04  9.82059311E-04  9.82059311E-04  9.82059311E-04  9.82059311E-04  9.82059311E-04  9.82059311E-04  9.82059311E-04  9.82059311E-04  9.82059311E-04  9.82059311E-04  9.82059311E-04  9.82059311E-04  9.82059311E-04  9.82059311E-04  9.82059311E-04  9.82059311E-04  9.82059311E-04
      9.82059311E-04  9.82059311E-04  9.82059311E-04  9.82059311E-04  9.82059311E-04  9.82059311E-04  9.82059311E-04  9.82059311E-04  9.82059311E-04  9.82059311E-04  9.82059311E-04  9.82059311E-04  9.82059311E-04  9.82059311E-04  9.82059311E-04  9.82059311E-04  9.82059311E-04  9.82059311E-04  9.82059311E-04  9.82059311E-04
      9.82059311E-04  9.82059311E-04  9.82059311E-04  9.82059311E-04  9.82059311E-04  9.82059311E-04  9.82059311E-04  9.82059311E-04  9.82059311E-04  9.82059311E-04  9.82059311E-04  9.82059311E-04  9.82059311E-04  9.82059311E-04  9.82059311E-04  9.82059311E-04  9.82059311E-04  9.82059311E-04  9.82059311E-04  9.82059311E-04
      9.82059311E-04  9.82059311E-04  9.82059311E-04  9.82059311E-04  9.82059311E-04  9.82059311E-04  9.82059311E-04  9.82059311E-04  9.82059311E-04  9.82059311E-04  9.82059311E-04  9.82059311E-04  9.82059311E-04  9.82059311E-04  9.82059311E-04  9.82059311E-04  9.82059311E-04  9.82059311E-04  9.82059311E-04  9.82059311E-04
      9.82059311E-04  9.82059311E-04  9.82059311E-04  9.82059311E-04  9.82059311E-04  9.82059311E-04  9.82059311E-04  9.82059311E-04  9.82059311E-04  9.82059311E-04
      9.82059311E-04  9.82059311E-04  9.82059311E-04  9.82059311E-04  9.82059311E-04  9.82059311E-04  9.82059311E-04  9.82059311E-04  9.82059311E-04  9.82059311E-04  9.82059311E-04  9.82059311E-04  9.82059311E-04  9.82059311E-04  9.82059311E-04  9.82059311E-04  9.82059311E-04  9.82059311E-04  9.82059311E-04  9.82059311E-04
      9.82059311E-04  9.82059311E-04  9.82059311E-04  9.82059311E-04  9.82059311E-04  9.82059311E-04  9.82059311E-04  9.82059311E-04  9.82059311E-04  9.82059311E-04  9.82059311E-04  9.82059311E-04  9.82059311E-04  9.82059311E-04  9.82059311E-04  9.82059311E-04  9.82059311E-04  9.82059311E-04  9.82059311E-04  9.82059311E-04
      9.82059311E-04  9.82059311E-04  9.82059311E-04  9.82059311E-04  9.82059311E-04  9.82059311E-04  9.82059311E-04  9.82059311E-04  9.82059311E-04  9.82059311E-04  9.82059311E-04  9.82059311E-04  9.82059311E-04  9.82059311E-04  9.82059311E-04  9.82059311E-04  9.82059311E-04  9.82059311E-04  9.82059311E-04  9.82059311E-04
      9.82059311E-04  9.82059311E-04  9.82059311E-04  9.82059311E-04  9.82059311E-04  9.82059311E-04  9.82059311E-04  9.82059311E-04  9.82059311E-04  9.82059311E-04  9.82059311E-04  9.82059311E-04  9.82059311E-04  9.82059311E-04  9.82059311E-04  9.82059311E-04  9.82059311E-04  9.82059311E-04  9.82059311E-04  9.82059311E-04
      9.82059311E-04  9.82059311E-04  9.82059311E-04  9.82059311E-04  9.82059311E-04  9.82059311E-04  9.82059311E-04  9.82059311E-04  9.82059311E-04  9.82059311E-04  9.82059311E-04  9.82059311E-04  9.82059311E-04  9.82059311E-04  9.82059311E-04  9.82059311E-04  9.82059311E-04  9.82059311E-04  9.82059311E-04  9.82059311E-04
      9.82059311E-04  9.82059311E-04  9.82059311E-04  9.82059311E-04  9.82059311E-04  9.82059311E-04  9.82059311E-04  9.82059311E-04  9.82059311E-04  9.82059311E-04  9.82059311E-04  9.82059311E-04  9.82059311E-04  9.82059311E-04  9.82059311E-04  9.82059311E-04  9.82059311E-04  9.82059311E-04  9.82059311E-04  9.82059311E-04
      9.82059311E-04  9.82059311E-04  9.82059311E-04  9.82059311E-04  9.82059311E-04  9.82059311E-04  9.82059311E-04  9.82059311E-04  9.82059311E-04  9.82059311E-04  9.82059311E-04  9.82059311E-04  9.82059311E-04  9.82059311E-04  9.82059311E-04  9.82059311E-04  9.82059311E-04  9.82059311E-04  9.82059311E-04  9.82059311E-04
      9.82059311E-04  9.82059311E-04  9.82059311E-04  9.82059311E-04  9.82059311E-04  9.82059311E-04  9.82059311E-04  9.82059311E-04  9.82059311E-04  9.82059311E-04
      9.82059311E-04  9.82059311E-04  9.82059311E-04  9.82059311E-04  9.82059311E-04  9.82059311E-04  9.82059311E-04  9.82059311E-04  9.82059311E-04  9.82059311E-04  9.82059311E-04  9.82059311E-04  9.82059311E-04  9.82059311E-04  9.82059311E-04  9.82059311E-04  9.82059311E-04  9.82059311E-04  9.82059311E-04  9.82059311E-04
      9.82059311E-04  9.82059311E-04  9.82059311E-04  9.82059311E-04  9.82059311E-04  9.82059311E-04  9.82059311E-04  9.82059311E-04  9.82059311E-04  9.82059311E-04  9.82059311E-04  9.82059311E-04  9.82059311E-04  9.82059311E-04  9.82059311E-04  9.82059311E-04  9.82059311E-04  9.82059311E-04  9.82059311E-04  9.82059311E-04
      9.82059311E-04  9.82059311E-04  9.82059311E-04  9.82059311E-04  9.82059311E-04  9.82059311E-04  9.82059311E-04  9.82059311E-04  9.82059311E-04  9.82059311E-04  9.82059311E-04  9.82059311E-04  9.82059311E-04  9.82059311E-04  9.82059311E-04  9.82059311E-04  9.82059311E-04  9.82059311E-04  9.82059311E-04  9.82059311E-04
      9.82059311E-04  9.82059311E-04  9.82059311E-04  9.82059311E-04  9.82059311E-04  9.82059311E-04  9.82059311E-04  9.82059311E-04  9.82059311E-04  9.82059311E-04  9.82059311E-04  9.82059311E-04  9.82059311E-04  9.82059311E-04  9.82059311E-04  9.82059311E-04  9.82059311E-04  9.82059311E-04  9.82059311E-04  9.82059311E-04
      9.82059311E-04  9.82059311E-04  9.82059311E-04  9.82059311E-04  9.82059311E-04  9.82059311E-04  9.82059311E-04  9.82059311E-04  9.82059311E-04  9.82059311E-04  9.82059311E-04  9.82059311E-04  9.82059311E-04  9.82059311E-04  9.82059311E-04  9.82059311E-04  9.82059311E-04  9.82059311E-04  9.82059311E-04  9.82059311E-04
      9.82059311E-04  9.82059311E-04  9.82059311E-04  9.82059311E-04  9.82059311E-04  9.82059311E-04  9.82059311E-04  9.82059311E-04  9.82059311E-04  9.82059311E-04  9.82059311E-04  9.82059311E-04  9.82059311E-04  9.82059311E-04  9.82059311E-04  9.82059311E-04  9.82059311E-04  9.82059311E-04  9.82059311E-04  9.82059311E-04
      9.82059311E-04  9.82059311E-04  9.82059311E-04  9.82059311E-04  9.82059311E-04  9.82059311E-04  9.82059311E-04  9.82059311E-04  9.82059311E-04  9.82059311E-04  9.82059311E-04  9.82059311E-04  9.82059311E-04  9.82059311E-04  9.82059311E-04  9.82059311E-04  9.82059311E-04  9.82059311E-04  9.82059311E-04  9.82059311E-04
      9.82059311E-04  9.82059311E-04  9.82059311E-04  9.82059311E-04  9.82059311E-04  9.82059311E-04  9.82059311E-04  9.82059311E-04  9.82059311E-04  9.82059311E-04
      9.82059311E-04  9.82059311E-04  9.82059311E-04  9.82059311E-04  9.82059311E-04  9.82059311E-04  9.82059311E-04  9.82059311E-04  9.82059311E-04  9.82059311E-04  9.82059311E-04  9.82059311E-04  9.82059311E-04  9.82059311E-04  9.82059311E-04  9.82059311E-04  9.82059311E-04  9.82059311E-04  9.82059311E-04  9.82059311E-04
      9.82059311E-04  9.82059311E-04  9.82059311E-04  9.82059311E-04  9.82059311E-04  9.82059311E-04  9.82059311E-04  9.82059311E-04  9.82059311E-04  9.82059311E-04  9.82059311E-04  9.82059311E-04  9.82059311E-04  9.82059311E-04  9.82059311E-04  9.82059311E-04  9.82059311E-04  9.82059311E-04  9.82059311E-04  9.82059311E-04
      9.82059311E-04  9.82059311E-04  9.82059311E-04  9.82059311E-04  9.82059311E-04  9.82059311E-04  9.82059311E-04  9.82059311E-04  9.82059311E-04  9.82059311E-04  9.82059311E-04  9.82059311E-04  9.82059311E-04  9.82059311E-04  9.82059311E-04  9.82059311E-04  9.82059311E-04  9.82059311E-04  9.82059311E-04  9.82059311E-04
      9.82059311E-04  9.82059311E-04  9.82059311E-04  9.82059311E-04  9.82059311E-04  9.82059311E-04  9.82059311E-04  9.82059311E-04  9.82059311E-04  9.82059311E-04  9.82059311E-04  9.82059311E-04  9.82059311E-04  9.82059311E-04  9.82059311E-04  9.82059311E-04  9.82059311E-04  9.82059311E-04  9.82059311E-04  9.82059311E-04
      9.82059311E-04  9.82059311E-04  9.82059311E-04  9.82059311E-04  9.82059311E-04  9.82059311E-04  9.82059311E-04  9.82059311E-04  9.82059311E-04  9.82059311E-04  9.82059311E-04  9.82059311E-04  9.82059311E-04  9.82059311E-04  9.82059311E-04  9.82059311E-04  9.82059311E-04  9.82059311E-04  9.82059311E-04  9.82059311E-04
      9.82059311E-04  9.82059311E-04  9.82059311E-04  9.82059311E-04  9.82059311E-04  9.82059311E-04  9.82059311E-04  9.82059311E-04  9.82059311E-04  9.82059311E-04  9.82059311E-04  9.82059311E-04  9.82059311E-04  9.82059311E-04  9.82059311E-04  9.82059311E-04  9.82059311E-04  9.82059311E-04  9.82059311E-04  9.82059311E-04
      9.82059311E-04  9.82059311E-04  9.82059311E-04  9.82059311E-04  9.82059311E-04  9.82059311E-04  9.82059311E-04  9.82059311E-04  9.82059311E-04  9.82059311E-04  9.82059311E-04  9.82059311E-04  9.82059311E-04  9.82059311E-04  9.82059311E-04  9.82059311E-04  9.82059311E-04  9.82059311E-04  9.82059311E-04  9.82059311E-04
      9.82059311E-04  9.82059311E-04  9.82059311E-04  9.82059311E-04  9.82059311E-04  9.82059311E-04  9.82059311E-04  9.82059311E-04  9.82059311E-04  9.82059311E-04
      9.82059311E-04  9.82059311E-04  9.82059311E-04  9.82059311E-04  9.82059311E-04  9.82059311E-04  9.82059311E-04  9.82059311E-04  9.82059311E-04  9.82059311E-04  9.82059311E-04  9.82059311E-04  9.82059311E-04  9.82059311E-04  9.82059311E-04  9.82059311E-04  9.82059311E-04  9.82059311E-04  9.82059311E-04  9.82059311E-04
      9.82059311E-04  9.82059311E-04  9.82059311E-04  9.82059311E-04  9.82059311E-04  9.82059311E-04  9.82059311E-04  9.82059311E-04  9.82059311E-04  9.82059311E-04  9.82059311E-04  9.82059311E-04  9.82059311E-04  9.82059311E-04  9.82059311E-04  9.82059311E-04  9.82059311E-04  9.82059311E-04  9.82059311E-04  9.82059311E-04
      9.82059311E-04  9.82059311E-04  9.82059311E-04  9.82059311E-04  9.82059311E-04  9.82059311E-04  9.82059311E-04  9.82059311E-04  9.82059311E-04  9.82059311E-04  9.82059311E-04  9.82059311E-04  9.82059311E-04  9.82059311E-04  9.82059311E-04  9.82059311E-04  9.82059311E-04  9.82059311E-04  9.82059311E-04  9.82059311E-04
      9.82059311E-04  9.82059311E-04  9.82059311E-04  9.82059311E-04  9.82059311E-04  9.82059311E-04  9.82059311E-04  9.82059311E-04  9.82059311E-04  9.82059311E-04  9.82059311E-04  9.82059311E-04  9.82059311E-04  9.82059311E-04  9.82059311E-04  9.82059311E-04  9.82059311E-04  9.82059311E-04  9.82059311E-04  9.82059311E-04
      9.82059311E-04  9.82059311E-04  9.82059311E-04  9.82059311E-04  9.82059311E-04  9.82059311E-04  9.82059311E-04  9.82059311E-04  9.82059311E-04  9.82059311E-04  9.82059311E-04  9.82059311E-04  9.82059311E-04  9.82059311E-04  9.82059311E-04  9.82059311E-04  9.82059311E-04  9.82059311E-04  9.82059311E-04  9.82059311E-04
      9.82059311E-04  9.82059311E-04  9.82059311E-04  9.82059311E-04  9.82059311E-04  9.82059311E-04  9.82059311E-04  9.82059311E-04  9.82059311E-04  9.82059311E-04  9.82059311E-04  9.82059311E-04  9.82059311E-04  9.82059311E-04  9.82059311E-04  9.82059311E-04  9.82059311E-04  9.82059311E-04  9.82059311E-04  9.82059311E-04
      9.82059311E-04  9.82059311E-04  9.82059311E-04  9.82059311E-04  9.82059311E-04  9.82059311E-04  9.82059311E-04  9.82059311E-04  9.82059311E-04  9.82059311E-04  9.82059311E-04  9.82059311E-04  9.82059311E-04  9.82059311E-04  9.82059311E-04  9.82059311E-04  9.82059311E-04  9.82059311E-04  9.82059311E-04  9.82059311E-04
      9.82059311E-04  9.82059311E-04  9.82059311E-04  9.82059311E-04  9.82059311E-04  9.82059311E-04  9.82059311E-04  9.82059311E-04  9.82059311E-04  9.82059311E-04
      9.82059311E-04  9.82059311E-04  9.82059311E-04  9.82059311E-04  9.82059311E-04  9.82059311E-04  9.82059311E-04  9.82059311E-04  9.82059311E-04  9.82059311E-04  9.82059311E-04  9.82059311E-04  9.82059311E-04  9.82059311E-04  9.82059311E-04  9.82059311E-04  9.82059311E-04  9.82059311E-04  9.82059311E-04  9.82059311E-04
      9.82059311E-04  9.82059311E-04  9.82059311E-04  9.82059311E-04  9.82059311E-04  9.82059311E-04  9.82059311E-04  9.82059311E-04  9.82059311E-04  9.82059311E-04  9.82059311E-04  9.82059311E-04  9.82059311E-04  9.82059311E-04  9.82059311E-04  9.82059311E-04  9.82059311E-04  9.82059311E-04  9.82059311E-04  9.82059311E-04
      9.82059311E-04  9.82059311E-04  9.82059311E-04  9.82059311E-04  9.82059311E-04  9.82059311E-04  9.82059311E-04  9.82059311E-04  9.82059311E-04  9.82059311E-04  9.82059311E-04  9.82059311E-04  9.82059311E-04  9.82059311E-04  9.82059311E-04  9.82059311E-04  9.82059311E-04  9.82059311E-04  9.82059311E-04  9.82059311E-04
      9.82059311E-04  9.82059311E-04  9.82059311E-04  9.82059311E-04  9.82059311E-04  9.82059311E-04  9.82059311E-04  9.82059311E-04  9.82059311E-04  9.82059311E-04  9.82059311E-04  9.82059311E-04  9.82059311E-04  9.82059311E-04  9.82059311E-04  9.82059311E-04  9.82059311E-04  9.82059311E-04  9.82059311E-04  9.82059311E-04
      9.82059311E-04  9.82059311E-04  9.82059311E-04  9.82059311E-04  9.82059311E-04  9.82059311E-04  9.82059311E-04  9.82059311E-04  9.82059311E-04  9.82059311E-04  9.82059311E-04  9.82059311E-04  9.82059311E-04  9.82059311E-04  9.82059311E-04  9.82059311E-04  9.82059311E-04  9.82059311E-04  9.82059311E-04  9.82059311E-04
      9.82059311E-04  9.82059311E-04  9.82059311E-04  9.82059311E-04  9.82059311E-04  9.82059311E-04  9.82059311E-04  9.82059311E-04  9.82059311E-04  9.82059311E-04  9.82059311E-04  9.82059311E-04  9.82059311E-04  9.82059311E-04  9.82059311E-04  9.82059311E-04  9.82059311E-04  9.82059311E-04  9.82059311E-04  9.82059311E-04
      9.82059311E-04  9.82059311E-04  9.82059311E-04  9.82059311E-04  9.82059311E-04  9.82059311E-04  9.82059311E-04  9.82059311E-04  9.82059311E-04  9.82059311E-04  9.82059311E-04  9.82059311E-04  9.82059311E-04  9.82059311E-04  9.82059311E-04  9.82059311E-04  9.82059311E-04  9.82059311E-04  9.82059311E-04  9.82059311E-04
      9.82059311E-04  9.82059311E-04  9.82059311E-04  9.82059311E-04  9.82059311E-04  9.82059311E-04  9.82059311E-04  9.82059311E-04  9.82059311E-04  9.82059311E-04
      9.82059311E-04  9.82059311E-04  9.82059311E-04  9.82059311E-04  9.82059311E-04  9.82059311E-04  9.82059311E-04  9.82059311E-04  9.82059311E-04  9.82059311E-04  9.82059311E-04  9.82059311E-04  9.82059311E-04  9.82059311E-04  9.82059311E-04  9.82059311E-04  9.82059311E-04  9.82059311E-04  9.82059311E-04  9.82059311E-04
      9.82059311E-04  9.82059311E-04  9.82059311E-04  9.82059311E-04  9.82059311E-04  9.82059311E-04  9.82059311E-04  9.82059311E-04  9.82059311E-04  9.82059311E-04  9.82059311E-04  9.82059311E-04  9.82059311E-04  9.82059311E-04  9.82059311E-04  9.82059311E-04  9.82059311E-04  9.82059311E-04  9.82059311E-04  9.82059311E-04
      9.82059311E-04  9.82059311E-04  9.82059311E-04  9.82059311E-04  9.82059311E-04  9.82059311E-04  9.82059311E-04  9.82059311E-04  9.82059311E-04  9.82059311E-04  9.82059311E-04  9.82059311E-04  9.82059311E-04  9.82059311E-04  9.82059311E-04  9.82059311E-04  9.82059311E-04  9.82059311E-04  9.82059311E-04  9.82059311E-04
      9.82059311E-04  9.82059311E-04  9.82059311E-04  9.82059311E-04  9.82059311E-04  9.82059311E-04  9.82059311E-04  9.82059311E-04  9.82059311E-04  9.82059311E-04  9.82059311E-04  9.82059311E-04  9.82059311E-04  9.82059311E-04  9.82059311E-04  9.82059311E-04  9.82059311E-04  9.82059311E-04  9.82059311E-04  9.82059311E-04
      9.82059311E-04  9.82059311E-04  9.82059311E-04  9.82059311E-04  9.82059311E-04  9.82059311E-04  9.82059311E-04  9.82059311E-04  9.82059311E-04  9.82059311E-04  9.82059311E-04  9.82059311E-04  9.82059311E-04  9.82059311E-04  9.82059311E-04  9.82059311E-04  9.82059311E-04  9.82059311E-04  9.82059311E-04  9.82059311E-04
      9.82059311E-04  9.82059311E-04  9.82059311E-04  9.82059311E-04  9.82059311E-04  9.82059311E-04  9.82059311E-04  9.82059311E-04  9.82059311E-04  9.82059311E-04  9.82059311E-04  9.82059311E-04  9.82059311E-04  9.82059311E-04  9.82059311E-04  9.82059311E-04  9.82059311E-04  9.82059311E-04  9.82059311E-04  9.82059311E-04
      9.82059311E-04  9.82059311E-04  9.82059311E-04  9.82059311E-04  9.82059311E-04  9.82059311E-04  9.82059311E-04  9.82059311E-04  9.82059311E-04  9.82059311E-04  9.82059311E-04  9.82059311E-04  9.82059311E-04  9.82059311E-04  9.82059311E-04  9.82059311E-04  9.82059311E-04  9.82059311E-04  9.82059311E-04  9.82059311E-04
      9.82059311E-04  9.82059311E-04  9.82059311E-04  9.82059311E-04  9.82059311E-04  9.82059311E-04  9.82059311E-04  9.82059311E-04  9.82059311E-04  9.82059311E-04
      9.82059311E-04  9.82059311E-04  9.82059311E-04  9.82059311E-04  9.82059311E-04  9.82059311E-04  9.82059311E-04  9.82059311E-04  9.82059311E-04  9.82059311E-04  9.82059311E-04  9.82059311E-04  9.82059311E-04  9.82059311E-04  9.82059311E-04  9.82059311E-04  9.82059311E-04  9.82059311E-04  9.82059311E-04  9.82059311E-04