BEGIN griddata
  strt
    INTERNAL  FACTOR  1.0
       -59.00000000     -59.00000000     -59.00000000     -59.00000000     -59.00000000     -59.00000000     -59.00000000     -59.00000000     -59.00000000     -59.00000000     -59.00000000     -59.00000000     -59.00000000     -59.00000000     -59.00000000     -59.00000000     -59.00000000     -59.00000000     -59.00000000     -59.00000000
       -59.00000000     -59.00000000     -59.00000000     -59.00000000     -59.00000000     -59.00000000     -59.00000000     -59.00000000     -59.00000000     -59.00000000     -59.00000000     -59.00000000     -59.00000000     -59.00000000     -59.00000000     -59.00000000     -59.00000000     -59.00000000     -59.00000000     -59.00000000
       -59.00000000     -59.00000000     -59.00000000     -59.00000000     -59.00000000     -59.00000000     -59.00000000     -59.00000000     -59.00000000     -59.00000000     -59.00000000     -59.00000000     -59.00000000     -59.00000000     -59.00000000     -59.00000000     -59.00000000     -59.00000000     -59.00000000     -59.00000000
       -59.00000000     -59.00000000     -59.00000000     -59.00000000     -59.00000000     -59.00000000     -59.00000000     -59.00000000     -59.00000000     -59.00000000     -59.00000000     -59.00000000     -59.00000000     -59.00000000     -59.00000000     -59.00000000     -59.00000000     -59.00000000     -59.00000000     -59.00000000
       -59.00000000     -59.00000000     -59.00000000     -59.00000000     -59.00000000     -59.00000000     -59.00000000     -59.00000000     -59.00000000     -59.00000000     -59.00000000     -59.00000000     -59.00000000     -59.00000000     -59.00000000     -59.00000000     -59.00000000     -59.00000000     -59.00000000     -59.00000000
       -59.00000000     -59.00000000     -59.00000000     -59.00000000     -59.00000000     -59.00000000     -59.00000000     -59.00000000     -59.00000000     -59.00000000     -59.00000000     -59.00000000     -59.00000000     -59.00000000     -59.00000000     -59.00000000     -59.00000000     -59.00000000     -59.00000000     -59.00000000
       -59.00000000     -59.00000000     -59.00000000     -59.00000000     -59.00000000     -59.00000000     -59.00000000     -59.00000000     -59.00000000     -59.00000000     -59.00000000     -59.00000000     -59.00000000     -52.22000122     -54.36999893     -56.50000000     -57.95999908     -59.50000000     -59.50000000     -58.68999863
       -58.75000000     -57.45999908     -58.56000137     -58.72000122     -59.00000000     -59.00000000     -59.00000000     -59.00000000     -59.00000000     -59.00000000     -59.00000000     -59.00000000     -59.00000000
       -59.00000000     -59.00000000     -59.00000000     -59.00000000     -59.00000000     -59.00000000     -59.00000000     -59.00000000     -59.00000000     -59.00000000     -59.00000000     -59.00000000     -59.00000000     -59.00000000     -59.00000000     -59.00000000     -59.00000000     -59.00000000     -59.00000000     -59.00000000
       -59.00000000     -59.00000000     -59.00000000     -59.00000000     -59.00000000     -59.00000000     -59.00000000     -59.00000000     -59.00000000     -59.00000000     -59.00000000     -59.00000000     -59.00000000     -59.00000000     -59.00000000     -59.00000000     -59.00000000     -59.00000000     -59.00000000     -59.00000000
       -59.00000000     -59.00000000     -59.00000000     -59.00000000     -59.00000000     -59.00000000     -59.00000000     -59.00000000     -59.00000000     -59.00000000     -59.00000000     -59.00000000     -59.00000000     -59.00000000     -59.00000000     -59.00000000     -59.00000000     -59.00000000     -59.00000000     -59.00000000
       -59.00000000     -59.00000000     -59.00000000     -59.00000000     -59.00000000     -59.00000000     -59.00000000     -59.00000000     -59.00000000     -59.00000000     -59.00000000     -59.00000000     -59.00000000     -59.00000000     -59.00000000     -59.00000000     -59.00000000     -59.00000000     -59.00000000     -59.00000000
       -59.00000000     -59.00000000     -59.00000000     -59.00000000     -59.00000000     -59.00000000     -59.00000000     -59.00000000     -59.00000000     -59.00000000     -59.00000000     -59.00000000     -59.00000000     -59.00000000     -59.00000000     -59.00000000     -59.00000000     -59.00000000     -59.00000000     -59.00000000
       -59.00000000     -59.00000000     -59.00000000     -59.00000000     -59.00000000     -59.00000000     -59.00000000     -59.00000000     -59.00000000     -59.00000000     -59.00000000     -59.00000000     -59.00000000     -59.00000000     -59.00000000     -59.00000000     -59.00000000     -59.00000000     -59.00000000     -59.00000000
       -59.00000000     -59.00000000     -59.00000000     -59.00000000     -59.00000000     -59.00000000     -59.00000000     -59.00000000     -59.00000000     -59.00000000     -59.00000000     -59.00000000     -59.00000000     -52.11999893     -54.83000183     -56.59999847     -56.93000031     -58.81999969     -59.50000000     -59.50000000
       -59.11000061     -58.22999954     -58.59000015     -58.77000046     -59.00000000     -59.00000000     -59.00000000     -59.00000000     -59.00000000     -59.00000000     -59.00000000     -59.00000000     -59.00000000
       -59.00000000     -59.00000000     -59.00000000     -59.00000000     -59.00000000     -59.00000000     -59.00000000     -59.00000000     -59.00000000     -59.00000000     -59.00000000     -59.00000000     -59.00000000     -59.00000000     -59.00000000     -59.00000000     -59.00000000     -59.00000000     -59.00000000     -59.00000000
       -59.00000000     -59.00000000     -59.00000000     -59.00000000     -59.00000000     -59.00000000     -59.00000000     -59.00000000     -59.00000000     -59.00000000     -59.00000000     -59.00000000     -59.00000000     -59.00000000     -59.00000000     -59.00000000     -59.00000000     -59.00000000     -59.00000000     -59.00000000
       -59.00000000     -59.00000000     -59.00000000     -59.00000000     -59.00000000     -59.00000000     -59.00000000     -59.00000000     -59.00000000     -59.00000000     -59.00000000     -59.00000000     -59.00000000     -59.00000000     -59.00000000     -59.00000000     -59.00000000     -59.00000000     -59.00000000     -59.00000000
       -59.00000000     -59.00000000     -59.00000000     -59.00000000     -59.00000000     -59.00000000     -59.00000000     -59.00000000     -59.00000000     -59.00000000     -59.00000000     -59.00000000     -59.00000000     -59.00000000     -59.00000000     -59.00000000     -59.00000000     -59.00000000     -59.00000000     -59.00000000
       -59.00000000     -59.00000000     -59.00000000     -59.00000000     -59.00000000     -59.00000000     -59.00000000     -59.00000000     -59.00000000     -59.00000000     -59.00000000     -59.00000000     -59.00000000     -59.00000000     -59.00000000     -59.00000000     -59.00000000     -59.00000000     -59.00000000     -59.00000000
       -59.00000000     -59.00000000     -59.00000000     -59.00000000     -59.00000000     -59.00000000     -59.00000000     -59.00000000     -59.00000000     -59.00000000     -59.00000000     -59.00000000     -59.00000000     -59.00000000     -59.00000000     -59.00000000     -59.00000000     -59.00000000     -59.00000000     -59.00000000
       -59.00000000     -59.00000000     -59.00000000     -59.00000000     -59.00000000     -59.00000000     -59.00000000     -59.00000000     -59.00000000     -59.00000000     -59.00000000     -59.00000000     -59.00000000     -52.20000076     -54.72000122     -56.95999908     -57.90999985     -58.08000183     -58.31000137     -58.38999939
       -56.72999954     -59.50000000     -59.50000000     -58.81999969     -59.00000000     -59.00000000     -59.00000000     -59.00000000     -59.00000000     -59.00000000     -59.00000000     -59.00000000     -59.00000000
       -59.00000000     -59.00000000     -59.00000000     -59.00000000     -59.00000000     -59.00000000     -59.00000000     -59.00000000     -59.00000000     -59.00000000     -59.00000000     -59.00000000     -59.00000000     -59.00000000     -59.00000000     -59.00000000     -59.00000000     -59.00000000     -59.00000000     -59.00000000
       -59.00000000     -59.00000000     -59.00000000     -59.00000000     -59.00000000     -59.00000000     -59.00000000     -59.00000000     -59.00000000     -59.00000000     -59.00000000     -59.00000000     -59.00000000     -59.00000000     -59.00000000     -59.00000000     -59.00000000     -59.00000000     -59.00000000     -59.00000000
       -59.00000000     -59.00000000     -59.00000000     -59.00000000     -59.00000000     -59.00000000     -59.00000000     -59.00000000     -59.00000000     -59.00000000     -59.00000000     -59.00000000     -59.00000000     -59.00000000     -59.00000000     -59.00000000     -59.00000000     -59.00000000     -59.00000000     -59.00000000
       -59.00000000     -59.00000000     -59.00000000     -59.00000000     -59.00000000     -59.00000000     -59.00000000     -59.00000000     -59.00000000     -59.00000000     -59.00000000     -59.00000000     -59.00000000     -59.00000000     -59.00000000     -59.00000000     -59.00000000     -59.00000000     -59.00000000     -59.00000000
       -59.00000000     -59.00000000     -59.00000000     -59.00000000     -59.00000000     -59.00000000     -59.00000000     -59.00000000     -59.00000000     -59.00000000     -59.00000000     -59.00000000     -59.00000000     -59.00000000     -59.00000000     -59.00000000     -59.00000000     -59.00000000     -59.00000000     -59.00000000
       -59.00000000     -59.00000000     -59.00000000     -59.00000000     -59.00000000     -59.00000000     -59.00000000     -59.00000000     -59.00000000     -59.00000000     -59.00000000     -59.00000000     -59.00000000     -59.00000000     -59.00000000     -59.00000000     -59.00000000     -59.00000000     -59.00000000     -59.00000000
       -59.00000000     -59.00000000     -59.00000000     -59.00000000     -59.00000000     -59.00000000     -59.00000000     -59.00000000     -59.00000000     -59.00000000     -59.00000000     -59.00000000     -59.00000000     -51.54000092     -54.72000122     -57.70000076     -58.27999878     -53.54000092     -54.65999985     -53.20000076
       -45.27000046     -55.59999847     -57.27999878     -59.06999969     -59.00000000     -59.00000000     -59.00000000     -59.00000000     -59.00000000     -59.00000000     -59.00000000     -59.00000000     -59.00000000
       -59.00000000     -59.00000000     -59.00000000     -59.00000000     -59.00000000     -59.00000000     -59.00000000     -59.00000000     -59.00000000     -59.00000000     -59.00000000     -59.00000000     -59.00000000     -59.00000000     -59.00000000     -59.00000000     -59.00000000     -59.00000000     -59.00000000     -59.00000000
       -59.00000000     -59.00000000     -59.00000000     -59.00000000     -59.00000000     -59.00000000     -59.00000000     -59.00000000     -59.00000000     -59.00000000     -59.00000000     -59.00000000     -59.00000000     -59.00000000     -59.00000000     -59.00000000     -59.00000000     -59.00000000     -59.00000000     -59.00000000
       -59.00000000     -59.00000000     -59.00000000     -59.00000000     -59.00000000     -59.00000000     -59.00000000     -59.00000000     -59.00000000     -59.00000000     -59.00000000     -59.00000000     -59.00000000     -59.00000000     -59.00000000     -59.00000000     -59.00000000     -59.00000000     -59.00000000     -59.00000000
       -59.00000000     -59.00000000     -59.00000000     -59.00000000     -59.00000000     -59.00000000     -59.00000000     -59.00000000     -59.00000000     -59.00000000     -59.00000000     -59.00000000     -59.00000000     -59.00000000     -59.00000000     -59.00000000     -59.00000000     -59.00000000     -59.00000000     -59.00000000
       -59.00000000     -59.00000000     -59.00000000     -59.00000000     -59.00000000     -59.00000000     -59.00000000     -59.00000000     -59.00000000     -59.00000000     -59.00000000     -59.00000000     -59.00000000     -59.00000000     -59.00000000     -59.00000000     -59.00000000     -59.00000000     -59.00000000     -59.00000000
       -59.00000000     -59.00000000     -59.00000000     -59.00000000     -59.00000000     -59.00000000     -59.00000000     -59.00000000     -59.00000000     -59.00000000     -59.00000000     -59.00000000     -59.00000000     -59.00000000     -59.00000000     -59.00000000     -59.00000000     -59.00000000     -59.00000000     -59.00000000
       -59.00000000     -59.00000000     -59.00000000     -59.00000000     -59.00000000     -59.00000000     -59.00000000     -59.00000000     -59.00000000     -59.00000000     -59.00000000     -59.00000000     -59.00000000     -52.93000031     -55.45000076     -58.11999893     -53.68000031     -44.93999863     -21.81999969     -18.63999939
       -16.68999863     -11.77999878      -8.84999847     -56.00000000     -59.00000000     -59.00000000     -59.00000000     -59.00000000     -59.00000000     -59.00000000     -59.00000000     -59.00000000     -59.00000000
       -59.00000000     -59.00000000     -59.00000000     -59.00000000     -59.00000000     -59.00000000     -59.00000000     -59.00000000     -59.00000000     -59.00000000     -59.00000000     -59.00000000     -59.00000000     -59.00000000     -59.00000000     -59.00000000     -59.00000000     -59.00000000     -59.00000000     -59.00000000
       -59.00000000     -59.00000000     -59.00000000     -59.00000000     -59.00000000     -59.00000000     -59.00000000     -59.00000000     -59.00000000     -59.00000000     -59.00000000     -59.00000000     -59.00000000     -59.00000000     -59.00000000     -59.00000000     -59.00000000     -59.00000000     -59.00000000     -59.00000000
       -59.00000000     -59.00000000     -59.00000000     -59.00000000     -59.00000000     -59.00000000     -59.00000000     -59.00000000     -59.00000000     -59.00000000     -59.00000000     -59.00000000     -59.00000000     -59.00000000     -59.00000000     -59.00000000     -59.00000000     -59.00000000     -59.00000000     -59.00000000
       -59.00000000     -59.00000000     -59.00000000     -59.00000000     -59.00000000     -59.00000000     -59.00000000     -59.00000000     -59.00000000     -59.00000000     -59.00000000     -59.00000000     -59.00000000     -59.00000000     -59.00000000     -59.00000000     -59.00000000     -59.00000000     -59.00000000     -59.00000000
       -59.00000000     -59.00000000     -59.00000000     -59.00000000     -59.00000000     -59.00000000     -59.00000000     -59.00000000     -59.00000000     -59.00000000     -59.00000000     -59.00000000     -59.00000000     -59.00000000     -59.00000000     -59.00000000     -59.00000000     -59.00000000     -59.00000000     -59.00000000
       -59.00000000     -59.00000000     -59.00000000     -59.00000000     -59.00000000     -59.00000000     -59.00000000     -59.00000000     -59.00000000     -59.00000000     -59.00000000     -59.00000000     -59.00000000     -59.00000000     -59.00000000     -59.00000000     -59.00000000     -59.00000000     -59.00000000     -59.00000000
       -59.00000000     -59.00000000     -59.00000000     -59.00000000     -59.00000000     -59.00000000     -59.00000000     -59.00000000     -59.00000000     -59.00000000     -59.00000000     -59.00000000     -59.00000000     -55.75000000     -57.08000183     -58.88999939     -53.08000183     -21.04999924     -19.72999954     -21.50000000
       -18.68999863     -13.09999847     -11.22999954    -148.75480652    -145.37170410     -58.77000046     -59.00000000     -59.00000000     -59.00000000     -59.00000000     -59.00000000     -59.00000000     -59.00000000
       -59.00000000     -59.00000000     -59.00000000     -59.00000000     -59.00000000     -59.00000000     -59.00000000     -59.00000000     -59.00000000     -59.00000000     -59.00000000     -59.00000000     -59.00000000     -59.00000000     -59.00000000     -59.00000000     -59.00000000     -59.00000000     -59.00000000     -59.00000000
       -59.00000000     -59.00000000     -59.00000000     -59.00000000     -59.00000000     -59.00000000     -59.00000000     -59.00000000     -59.00000000     -59.00000000     -59.00000000     -59.00000000     -59.00000000     -59.00000000     -59.00000000     -59.00000000     -59.00000000     -59.00000000     -59.00000000     -59.00000000
       -59.00000000     -59.00000000     -59.00000000     -59.00000000     -59.00000000     -59.00000000     -59.00000000     -59.00000000     -59.00000000     -59.00000000     -59.00000000     -59.00000000     -59.00000000     -59.00000000     -59.00000000     -59.00000000     -59.00000000     -59.00000000     -59.00000000     -59.00000000
       -59.00000000     -59.00000000     -59.00000000     -59.00000000     -59.00000000     -59.00000000     -59.00000000     -59.00000000     -59.00000000     -59.00000000     -59.00000000     -59.00000000     -59.00000000     -59.00000000     -59.00000000     -59.00000000     -59.00000000     -59.00000000     -59.00000000     -59.00000000
       -59.00000000     -59.00000000     -59.00000000     -59.00000000     -59.00000000     -59.00000000     -59.00000000     -59.00000000     -59.00000000     -59.00000000     -59.00000000     -59.00000000     -59.00000000     -59.00000000     -59.00000000     -59.00000000     -59.00000000     -59.00000000     -59.00000000     -59.00000000
       -59.00000000     -59.00000000     -59.00000000     -59.00000000     -59.00000000     -59.00000000     -59.00000000     -59.00000000     -59.00000000     -59.00000000     -59.00000000     -59.00000000     -59.00000000     -59.00000000     -59.00000000     -59.00000000     -59.00000000     -59.00000000     -59.00000000     -59.00000000
       -59.00000000     -59.00000000     -59.00000000     -59.00000000     -59.00000000     -59.00000000     -59.00000000     -59.00000000     -59.00000000     -59.00000000     -59.00000000     -59.00000000     -59.00000000     -54.02000046     -57.63000107     -58.88999939     -58.93000031     -51.22000122     -20.59999847     -18.72999954
       -17.50000000     -19.59999847    -145.84570312    -142.54849243    -138.97300720    -134.23059082    -130.28039551    -125.02670288     -59.00000000     -59.00000000     -59.00000000    -108.14370728    -112.05629730
       -59.00000000     -59.00000000     -59.00000000     -59.00000000     -59.00000000     -59.00000000     -59.00000000     -59.00000000     -59.00000000     -59.00000000     -59.00000000     -59.00000000     -59.00000000     -59.00000000     -59.00000000     -59.00000000     -59.00000000     -59.00000000     -59.00000000     -59.00000000
       -59.00000000     -59.00000000     -59.00000000     -59.00000000     -59.00000000     -59.00000000     -59.00000000     -59.00000000     -59.00000000     -59.00000000     -59.00000000     -59.00000000     -59.00000000     -59.00000000     -59.00000000     -59.00000000     -59.00000000     -59.00000000     -59.00000000     -59.00000000
       -59.00000000     -59.00000000     -59.00000000     -59.00000000     -59.00000000     -59.00000000     -59.00000000     -59.00000000     -59.00000000     -59.00000000     -59.00000000     -59.00000000     -59.00000000     -59.00000000     -59.00000000     -59.00000000     -59.00000000     -59.00000000     -59.00000000     -59.00000000
       -59.00000000     -59.00000000     -59.00000000     -59.00000000     -59.00000000     -59.00000000     -59.00000000     -59.00000000     -59.00000000     -59.00000000     -59.00000000     -59.00000000     -59.00000000     -59.00000000     -59.00000000     -59.00000000     -59.00000000     -59.00000000     -59.00000000     -59.00000000
       -59.00000000     -59.00000000     -59.00000000     -59.00000000     -59.00000000     -59.00000000     -59.00000000     -59.00000000     -59.00000000     -59.00000000     -59.00000000     -59.00000000     -59.00000000     -59.00000000     -59.00000000     -59.00000000     -59.00000000     -59.00000000     -59.00000000     -59.00000000
       -59.00000000     -59.00000000     -59.00000000     -59.00000000     -59.00000000     -59.00000000     -59.00000000     -59.00000000     -59.00000000     -59.00000000     -59.00000000     -59.00000000     -59.00000000     -59.00000000     -59.00000000     -59.00000000     -59.00000000     -59.00000000     -59.00000000     -59.00000000
       -59.00000000     -59.00000000     -59.00000000     -59.00000000     -59.00000000     -59.00000000     -59.00000000     -59.00000000     -59.00000000     -59.00000000     -59.00000000     -59.00000000     -59.00000000     -52.63999939     -57.06000137     -58.93000031     -58.93000031     -47.43999863     -18.38999939     -11.29999924
        26.54000092    -142.95300293    -139.75349426    -136.41839600    -131.98229980    -126.91950226    -122.84349823    -117.40019989     -59.00000000    -107.16589355    -102.95001221    -100.45873260    -110.68579865
       -59.00000000     -59.00000000     -59.00000000     -59.00000000     -59.00000000     -59.00000000     -59.00000000     -59.00000000     -59.00000000     -59.00000000     -59.00000000     -59.00000000     -59.00000000     -59.00000000     -59.00000000     -59.00000000     -59.00000000     -59.00000000     -59.00000000     -59.00000000
       -59.00000000     -59.00000000     -59.00000000     -59.00000000     -59.00000000     -59.00000000     -59.00000000     -59.00000000     -59.00000000     -59.00000000     -59.00000000     -59.00000000     -59.00000000     -59.00000000     -59.00000000     -59.00000000     -59.00000000     -59.00000000     -59.00000000     -59.00000000
       -59.00000000     -59.00000000     -59.00000000     -59.00000000     -59.00000000     -59.00000000     -59.00000000     -59.00000000     -59.00000000     -59.00000000     -59.00000000     -59.00000000     -59.00000000     -59.00000000     -59.00000000     -59.00000000     -59.00000000     -59.00000000     -59.00000000     -59.00000000
       -59.00000000     -59.00000000     -59.00000000     -59.00000000     -59.00000000     -59.00000000     -59.00000000     -59.00000000     -59.00000000     -59.00000000     -59.00000000     -59.00000000     -59.00000000     -59.00000000     -59.00000000     -59.00000000     -59.00000000     -59.00000000     -59.00000000     -59.00000000
       -59.00000000     -59.00000000     -59.00000000     -59.00000000     -59.00000000     -59.00000000     -59.00000000     -59.00000000     -59.00000000     -59.00000000     -59.00000000     -59.00000000     -59.00000000     -59.00000000     -59.00000000     -59.00000000     -59.00000000     -59.00000000     -59.00000000     -59.00000000
       -59.00000000     -59.00000000     -59.00000000     -59.00000000     -59.00000000     -59.00000000     -59.00000000     -59.00000000     -59.00000000     -59.00000000     -59.00000000     -59.00000000     -59.00000000     -59.00000000     -59.00000000     -59.00000000     -59.00000000     -59.00000000     -59.00000000     -59.00000000
       -59.00000000     -59.00000000     -59.00000000     -59.00000000     -59.00000000     -59.00000000     -59.00000000     -59.00000000     -59.00000000     -59.00000000     -59.00000000     -59.00000000     -59.00000000     -54.15999985     -55.58000183     -58.93000031     -58.93000031     -58.93000031     -15.97999954    -143.51310730
      -140.07279968    -136.97430420    -133.88650513    -129.80650330    -124.99600220    -119.92549896    -115.71679688    -110.08719635    -104.26065063     -98.75559235     -94.43968964     -93.98385620    -109.62689972
       -59.00000000     -59.00000000     -59.00000000     -59.00000000     -59.00000000     -59.00000000     -59.00000000     -59.00000000     -59.00000000     -59.00000000     -59.00000000     -59.00000000     -59.00000000     -59.00000000     -59.00000000     -59.00000000     -59.00000000     -59.00000000     -59.00000000     -59.00000000
       -59.00000000     -59.00000000     -59.00000000     -59.00000000     -59.00000000     -59.00000000     -59.00000000     -59.00000000     -59.00000000     -59.00000000     -59.00000000     -59.00000000     -59.00000000     -59.00000000     -59.00000000     -59.00000000     -59.00000000     -59.00000000     -59.00000000     -59.00000000
       -59.00000000     -59.00000000     -59.00000000     -59.00000000     -59.00000000     -59.00000000     -59.00000000     -59.00000000     -59.00000000     -59.00000000     -59.00000000     -59.00000000     -59.00000000     -59.00000000     -59.00000000     -59.00000000     -59.00000000     -59.00000000     -59.00000000     -59.00000000
       -59.00000000     -59.00000000     -59.00000000     -59.00000000     -59.00000000     -59.00000000     -59.00000000     -59.00000000     -59.00000000     -59.00000000     -59.00000000     -59.00000000     -59.00000000     -59.00000000     -59.00000000     -59.00000000     -59.00000000     -59.00000000     -59.00000000     -59.00000000
       -59.00000000     -59.00000000     -59.00000000     -59.00000000     -59.00000000     -59.00000000     -59.00000000     -59.00000000     -59.00000000     -59.00000000     -59.00000000     -59.00000000     -59.00000000     -59.00000000     -59.00000000     -59.00000000     -59.00000000     -59.00000000     -59.00000000     -59.00000000
       -59.00000000     -59.00000000     -59.00000000     -59.00000000     -59.00000000     -59.00000000     -59.00000000     -59.00000000     -59.00000000     -59.00000000     -59.00000000     -59.00000000     -59.00000000     -59.00000000     -59.00000000     -59.00000000     -59.00000000     -59.00000000     -59.00000000     -59.00000000
       -59.00000000     -59.00000000     -59.00000000     -59.00000000     -59.00000000     -59.00000000     -59.00000000     -59.00000000     -59.00000000     -59.00000000     -59.00000000     -59.00000000     -59.00000000     -52.15999985     -56.61999893     -58.93000031     -58.93000031     -58.93000031     -32.54999924    -137.20150757
      -134.20489502    -131.36450195    -127.66860962    -123.17890167    -118.43979645    -113.39669800    -109.02130127    -103.21714783     -97.03790283     -90.61997986     -85.60063171     -92.58159637    -109.36969757
       -59.00000000     -59.00000000     -59.00000000     -59.00000000     -59.00000000     -59.00000000     -59.00000000     -59.00000000     -59.00000000     -59.00000000     -59.00000000     -59.00000000     -59.00000000     -59.00000000     -59.00000000     -59.00000000     -59.00000000     -59.00000000     -59.00000000     -59.00000000
       -59.00000000     -59.00000000     -59.00000000     -59.00000000     -59.00000000     -59.00000000     -59.00000000     -59.00000000     -59.00000000     -59.00000000     -59.00000000     -59.00000000     -59.00000000     -59.00000000     -59.00000000     -59.00000000     -59.00000000     -59.00000000     -59.00000000     -59.00000000
       -59.00000000     -59.00000000     -59.00000000     -59.00000000     -59.00000000     -59.00000000     -59.00000000     -59.00000000     -59.00000000     -59.00000000     -59.00000000     -59.00000000     -59.00000000     -59.00000000     -59.00000000     -59.00000000     -59.00000000     -59.00000000     -59.00000000     -59.00000000
       -59.00000000     -59.00000000     -59.00000000     -59.00000000     -59.00000000     -59.00000000     -59.00000000     -59.00000000     -59.00000000     -59.00000000     -59.00000000     -59.00000000     -59.00000000     -59.00000000     -59.00000000     -59.00000000     -59.00000000     -59.00000000     -59.00000000     -59.00000000
       -59.00000000     -59.00000000     -59.00000000     -59.00000000     -59.00000000     -59.00000000     -59.00000000     -59.00000000     -59.00000000     -59.00000000     -59.00000000     -59.00000000     -59.00000000     -59.00000000     -59.00000000     -59.00000000     -59.00000000     -59.00000000     -59.00000000     -59.00000000
       -59.00000000     -59.00000000     -59.00000000     -59.00000000     -59.00000000     -59.00000000     -59.00000000     -59.00000000     -59.00000000     -59.00000000     -59.00000000     -59.00000000     -59.00000000     -59.00000000     -59.00000000     -59.00000000     -59.00000000     -59.00000000     -59.00000000     -59.00000000
       -59.00000000     -59.00000000     -59.00000000     -59.00000000     -59.00000000     -59.00000000     -59.00000000     -59.00000000     -59.00000000     -59.00000000     -59.00000000     -59.00000000     -59.00000000     -55.63999939     -58.93000031     -58.93000031     -58.93000031     -58.93000031     -45.47000122    -131.44400024
      -128.85018921    -125.54540253    -121.43139648    -117.11049652    -112.54180145    -107.66407776    -103.25869751     -97.46452332     -91.04519653     -83.82846069     -76.37861633     -92.83132935    -110.45880127
       -59.00000000     -59.00000000     -59.00000000     -59.00000000     -59.00000000     -59.00000000     -59.00000000     -59.00000000     -59.00000000     -59.00000000     -59.00000000     -59.00000000     -59.00000000     -59.00000000     -59.00000000     -59.00000000     -59.00000000     -59.00000000     -59.00000000     -59.00000000
       -59.00000000     -59.00000000     -59.00000000     -59.00000000     -59.00000000     -59.00000000     -59.00000000     -59.00000000     -59.00000000     -59.00000000     -59.00000000     -59.00000000     -59.00000000     -59.00000000     -59.00000000     -59.00000000     -59.00000000     -59.00000000     -59.00000000     -59.00000000
       -59.00000000     -59.00000000     -59.00000000     -59.00000000     -59.00000000     -59.00000000     -59.00000000     -59.00000000     -59.00000000     -59.00000000     -59.00000000     -59.00000000     -59.00000000     -59.00000000     -59.00000000     -59.00000000     -59.00000000     -59.00000000     -59.00000000     -59.00000000