BEGIN options
END options

BEGIN dimensions
  MAXBOUND  406
END dimensions

BEGIN period  1
  1 101 130      -0.00913759
  1 81 137      -0.00433229
  1 98 117      -0.00120240
  1 97 118      -0.01802905
  1 79 109  -7.36681887E-04
  1 78 114      -0.01063921
  1 78 114      -0.01852448
  1 94 116      -0.01352007
  1 105 117      -0.00790589
  1 70 133      -0.00495412
  1 94 80      -0.00383454
  1 96 81      -0.01462427
  1 104 89      -0.02368861
  1 90 97      -0.02338258
  1 90 94  -8.87874176E-04
  1 91 85      -0.00760195
  1 94 58      -0.04297939
  1 100 62      -0.00362649
  1 94 42      -0.00353678
  1 95 41  -7.87037037E-05
  1 63 88      -0.00887373
  1 91 59      -0.00407300
  1 88 135      -0.00839365
  1 68 101      -0.01678393
  1 101 68  -9.69748858E-04
  1 131 83      -0.00856164
  1 50 115  -4.81988838E-04
  1 104 82  -5.40969051E-04
  1 93 66  -9.51293760E-05
  1 91 61  -1.14155251E-04
  1 105 63      -0.00129316
  1 143 106      -0.00879287
  1 121 132      -0.00235661
  1 113 128      -0.00948354
  1 121 132      -0.00945152
  1 128 136      -0.01234592
  1 121 132      -0.01003656
  1 121 132      -0.00911726
  1 121 132      -0.00450289
  1 126 101      -0.00279408
  1 106 118      -0.00665690
  1 113 121      -0.00289422
  1 115 97      -0.00620316
  1 110 89  -2.17846271E-05
  1 118 84      -0.01136771
  1 88 136      -0.00407788
  1 76 142      -0.00881837
  1 95 133      -0.01169032
  1 87 134      -0.00828057
  1 89 140      -0.01047974
  1 79 139      -0.01826113
  1 96 142      -0.00747121
  1 143 106      -0.00560458
  1 142 107      -0.00367526
  1 143 107      -0.01485769
  1 131 137  -8.56164384E-04
  1 129 133      -0.01079354
  1 121 132      -0.00625856
  1 126 127      -0.00134434
  1 128 136      -0.05300685
  1 112 101      -0.00407132
  1 127 115      -0.00789346
  1 120 110      -0.00729154
  1 123 110      -0.00733206
  1 125 112      -0.00828494
  1 127 113      -0.00909358
  1 119 120      -0.00438981
  1 131 122      -0.00368760
  1 114 110      -0.01084928
  1 124 101  -9.30365297E-04
  1 125 117      -0.01212129
  1 126 103      -0.00822089
  1 158 84      -0.02064181
  1 146 100      -0.00379665
  1 162 77      -0.00790512
  1 153 92  -6.31151700E-04
  1 105 88      -0.01117596
  1 128 90  -7.82090309E-04
  1 123 78      -0.00677010
  1 126 68      -0.01167057
  1 112 64      -0.01803574
  1 134 72      -0.01236682
  1 128 70      -0.00100285
  1 116 66      -0.01822045
  1 114 67      -0.00106215
  1 107 22      -0.00924978
  1 86 142  -2.45846017E-04
  1 101 131      -0.00779344
  1 80 130      -0.00245798
  1 87 116  -6.34195840E-04
  1 103 122  -9.51293760E-06
  1 83 110  -1.36352106E-04
  1 98 107      -0.01218246
  1 85 104      -0.00358688
  1 90 107  -3.67833587E-06
  1 82 103      -0.00565088
  1 99 114      -0.00133942
  1 64 130      -0.00422130
  1 69 136      -0.00477559
  1 59 126      -0.00433143
  1 70 133      -0.00495294
  1 65 129      -0.01609821
  1 62 134      -0.00599505
  1 59 132      -0.00937288
  1 55 131      -0.01470605
  1 71 107      -0.01688559
  1 69 121      -0.00794930
  1 42 112      -0.00688118
  1 68 108  -3.80517504E-05
  1 45 120  -1.42694064E-04
  1 62 124      -0.00452353
  1 51 109  -2.16197362E-04
  1 62 99      -0.00150520
  1 85 87      -0.00905410
  1 92 96      -0.00901164
  1 96 97  -1.74530695E-04
  1 102 87      -0.00116920
  1 86 88      -0.01088401
  1 90 97  -4.27416286E-04
  1 88 78      -0.01101376
  1 86 91      -0.01008333
  1 96 55      -0.01522726
  1 94 56      -0.02730654
  1 94 56      -0.00204871
  1 93 75  -5.06659056E-04
  1 103 64  -3.80517504E-04
  1 92 70      -0.00893690
  1 100 57      -0.11600828
  1 91 40  -1.39681634E-04
  1 94 45      -0.06838499
  1 94 45      -0.02161574
  1 92 51      -0.01389374
  1 104 38  -1.61244292E-04
  1 70 98      -0.00894882
  1 71 93      -0.00320329
  1 60 93  -3.32952816E-04
  1 62 98      -0.00870687
  1 143 108  -3.54832572E-04
  1 131 122      -0.01708222
  1 116 66      -0.01972707
  1 73 135      -0.00385813
  1 86 142  -2.05701421E-04
  1 78 109      -0.00271100
  1 82 103      -0.00565088
  1 57 136      -0.00853244
  1 59 126      -0.01112833
  1 60 125      -0.00529097
  1 59 133      -0.00443610
  1 60 125      -0.00511162
  1 63 108      -0.00256355
  1 62 124      -0.00641521
  1 56 108  -7.59069001E-04
  1 96 55      -0.02256938
  1 38 144      -0.00972501
  1 136 133  -2.21968544E-04
  1 120 101  -3.98592085E-04
  1 124 106  -3.80517504E-04
  1 123 107  -2.37823440E-05
  1 93 84  -2.04845256E-04
  1 87 132      -0.00158549
  1 109 89  -2.16894977E-04
  1 57 116  -1.90258752E-04
  1 70 123      -0.00253678
  1 76 126  -6.65905632E-04
  1 106 87  -8.68848300E-05
  1 132 137  -2.02942669E-04
  1 128 126  -3.55149670E-04
  1 100 40  -4.66133942E-04
  1 101 27  -1.85660832E-04
  1 100 47  -5.07356672E-04
  1 94 53  -1.80745814E-04
  1 94 38  -2.85388128E-04
  1 96 42  -3.10755961E-04
  1 92 43  -6.34195840E-04
  1 97 42  -5.07356672E-04
  1 94 40  -1.90258752E-04
  1 98 42  -4.42351598E-04
  1 96 41  -1.98503298E-04
  1 95 44  -5.67605277E-04
  1 95 44  -1.10984272E-04
  1 95 40  -2.12455606E-04
  1 138 116  -1.38381532E-04
  1 136 127  -1.26839168E-04
  1 135 121  -2.91254439E-04
  1 83 106  -1.26839168E-04
  1 69 111      -0.00190259
  1 71 115  -7.61035008E-04
  1 73 115  -4.75646880E-05
  1 72 117  -6.34195840E-04
  1 68 106  -1.01471334E-04
  1 70 109  -6.34195840E-04
  1 72 114  -9.51293760E-05
  1 73 117  -1.77574835E-04
  1 66 107  -6.18340944E-04
  1 59 93  -4.75646880E-04
  1 101 59  -3.80517504E-04
  1 103 58  -3.80517504E-04
  1 104 67  -3.80517504E-04
  1 99 63  -7.13470320E-05
  1 103 63  -3.80517504E-04
  1 96 61  -3.80517504E-04
  1 99 65  -3.80517504E-04
  1 100 65  -4.92770167E-04
  1 140 118      -0.00846651
  1 58 129  -1.90258752E-04
  1 58 128  -2.85388128E-04
  1 55 130  -2.66362253E-04
  1 56 125  -1.14155251E-04
  1 60 122  -1.90258752E-04
  1 62 125  -7.22983257E-04
  1 59 131  -1.26839168E-04
  1 61 130  -2.53678336E-05
  1 59 129  -6.34195840E-04
  1 44 120  -1.90258752E-04
  1 43 120  -2.37823440E-04
  1 108 65  -3.55149670E-04
  1 67 134  -1.20497210E-04
  1 68 140  -1.52207002E-04
  1 67 133  -5.83460173E-04
  1 67 135      -0.00126839
  1 67 136      -0.00126839
  1 67 135  -2.53678336E-04
  1 73 130  -9.51293760E-04
  1 73 129  -3.80517504E-04
  1 76 130  -4.56621005E-04
  1 72 132  -5.77118214E-04
  1 73 132  -3.17097920E-04
  1 73 127  -5.39066464E-04
  1 105 80  -2.02942669E-04
  1 83 129  -5.07356672E-04
  1 83 127  -1.52207002E-04
  1 83 125  -5.07356672E-04
  1 83 124  -6.34195840E-04
  1 81 123  -2.66362253E-04
  1 84 122  -1.26839168E-04
  1 82 123  -1.01471334E-04
  1 82 131  -1.90258752E-04
  1 84 124  -1.01471334E-04
  1 83 129  -7.48351091E-05
  1 84 124      -0.00122400
  1 77 129  -8.62506342E-04
  1 149 106  -5.70776256E-04
  1 90 79  -1.58548960E-04
  1 38 113  -1.90258752E-04
  1 98 56  -2.06113648E-05
  1 79 121  -5.07356672E-04
  1 77 120  -1.58548960E-04
  1 105 52      -0.00153355
  1 108 80  -3.80517504E-04
  1 108 59  -4.28082192E-04
  1 77 118  -1.71232877E-04
  1 132 134      -0.00232024
  1 98 34      -0.00108457
  1 101 49  -6.34830036E-04
  1 97 44  -2.85388128E-04
  1 94 44  -1.18911720E-04
  1 95 44  -4.71841705E-04
  1 84 109  -2.85388128E-04
  1 88 115  -8.16812532E-04
  1 116 90      -0.00107211
  1 88 99  -2.85388128E-04
  1 104 69      -0.00761035
  1 100 66  -1.90258752E-04
  1 44 119  -2.28310502E-04
  1 106 79  -9.51293760E-04
  1 119 88  -6.67808219E-04
  1 82 126  -5.07356672E-04
  1 82 127  -1.90258752E-04
  1 82 127  -1.21765601E-04
  1 77 127  -7.29325216E-04
  1 33 121      -0.00194857
  1 103 59  -5.70776256E-04
  1 110 81  -8.87874176E-05
  1 62 96  -5.89548453E-04
  1 60 91  -5.70776256E-04
  1 102 68  -6.72247590E-04
  1 55 131      -0.00751522
  1 57 125  -5.39066464E-04
  1 54 117  -5.70776256E-04
  1 57 134  -1.26839168E-04
  1 61 135  -4.43937088E-05
  1 62 135  -6.34195840E-04
  1 59 130  -2.70167428E-04
  1 105 130  -3.64662608E-04
  1 46 117  -4.69304921E-05
  1 43 115  -1.42694064E-04
  1 45 111  -2.98706240E-04
  1 48 110  -6.34195840E-05
  1 113 119      -0.00232024
  1 106 73      -0.00133181
  1 105 75      -0.00123668
  1 115 65  -1.64890918E-04
  1 108 76      -0.00237823
  1 107 62  -1.61085743E-04
  1 111 68  -3.08282598E-04
  1 68 138  -3.75443937E-04
  1 67 134  -6.34195840E-04
  1 68 135  -3.17097920E-04
  1 105 80      -0.00132610
  1 108 76  -3.74175545E-04
  1 79 127  -7.92744800E-04
  1 81 128  -9.51293760E-05
  1 78 127  -4.85159817E-04
  1 80 130  -7.86402841E-05
  1 82 126  -3.17097920E-04
  1 81 128      -0.00221969
  1 82 132  -4.75646880E-05
  1 81 128      -0.00143962
  1 96 58      -0.00406028
  1 80 131      -0.00294803
  1 116 129  -2.85388128E-04
  1 133 129      -0.01716086
  1 133 138  -6.97615424E-05
  1 125 135  -8.87874176E-04
  1 93 84  -9.86174531E-05
  1 85 114  -1.90258752E-04
  1 86 120      -0.00106317
  1 81 123  -2.09284627E-04
  1 83 115  -1.57978184E-04
  1 107 25      -0.00532725
  1 107 22      -0.00102645
  1 151 90  -3.91742770E-04
  1 86 132      -0.00190259
  1 109 88  -6.34195840E-04
  1 105 93  -5.70776256E-04
  1 68 115      -0.00155327
  1 74 126  -6.21511923E-04
  1 69 118  -2.02942669E-04
  1 129 125      -0.02072073
  1 131 127      -0.00283584
  1 132 137  -1.52207002E-04
  1 129 139  -6.59563673E-04
  1 128 131  -9.51293760E-05
  1 132 130  -1.26839168E-04
  1 126 125  -3.17097920E-04
  1 125 128  -6.49670218E-04
  1 60 90      -0.00383153
  1 106 27  -4.94672755E-04
  1 100 41  -2.91730086E-04
  1 97 36  -9.10705226E-04
  1 129 134  -8.37138508E-04
  1 125 137  -2.21968544E-04
  1 126 137  -3.17097920E-04
  1 128 135  -1.26839168E-04
  1 152 100      -0.00351195
  1 136 127  -2.28310502E-04
  1 135 128  -1.01471334E-04
  1 135 120  -5.95509893E-05
  1 141 129  -7.51490360E-04
  1 136 121  -6.78652968E-04
  1 140 121  -6.34195840E-04
  1 90 111  -2.56532217E-04
  1 88 118  -3.71955860E-04
  1 83 107  -3.80517504E-04
  1 79 108  -1.47989599E-04
  1 96 97  -6.03754439E-05
  1 93 76  -3.17097920E-04
  1 95 67  -5.07356672E-05
  1 72 115  -6.34195840E-04
  1 72 111  -3.17097920E-04
  1 70 114  -3.17097920E-04
  1 66 107  -3.75443937E-04
  1 71 117      -0.00179160
  1 73 112      -0.00114472
  1 68 108      -0.00126839
  1 73 117      -0.00126839
  1 72 112  -3.17097920E-04
  1 66 108  -4.75646880E-04
  1 112 101  -7.92744800E-06
  1 145 129      -0.00285388
  1 84 139      -0.00190259
  1 81 140  -8.33967529E-04
  1 81 140  -3.99543379E-04
  1 81 140  -9.51293760E-04
  1 81 137  -3.85020294E-04
  1 100 58  -1.71232877E-04
  1 101 57      -0.00133181
  1 99 61  -2.37823440E-04
  1 103 65  -2.15626585E-04
  1 99 67  -6.75418569E-05
  1 104 69      -0.00228311
  1 105 61  -3.80517504E-04
  1 106 61  -3.80517504E-04
  1 103 63  -3.80517504E-04
  1 80 130      -0.00142694
  1 78 127  -3.17097920E-04
  1 77 126  -1.90258752E-04
  1 82 132  -5.07356672E-04
  1 84 128  -9.51293760E-05
  1 84 129  -8.56164384E-04
  1 82 124  -6.34195840E-05
  1 131 92  -7.51204972E-05
  1 91 77  -6.34195840E-05
  1 134 72      -0.01119482
  1 38 144      -0.01019980
  1 129 91  -2.99784373E-04
  1 99 57  -2.18797565E-04
  1 42 112  -1.54268138E-04
  1 140 114      -0.01106298
  1 69 131  -9.51293760E-04
  1 69 130  -4.75646880E-04
  1 107 38  -5.70776256E-04
  1 146 137  -2.94457128E-04
  1 83 127  -3.99543379E-04
  1 61 96  -5.57141045E-05
  1 137 137  -3.55149670E-04
END period  1

BEGIN period  2
  1 101 130      -0.00549536
  1 81 137      -0.00260544
  1 98 117  -7.23127311E-04
  1 97 118      -0.01084270
  1 79 109  -4.43041580E-04
  1 78 114      -0.00639843
  1 78 114      -0.01114065
  1 94 116      -0.00813099
  1 105 117      -0.00475461
  1 70 133      -0.00297941
  1 94 80      -0.00230610
  1 96 81      -0.00879506
  1 104 89      -0.01424637
  1 90 97      -0.01406232
  1 90 94  -5.33968847E-04
  1 91 85      -0.00457182
  1 94 58      -0.02584787
  1 100 62      -0.00218098
  1 94 42      -0.00212703
  1 95 41  -4.73325242E-05
  1 63 88      -0.00533668
  1 91 59      -0.00244951
  1 88 135      -0.00504795
  1 68 101      -0.01009388
  1 101 68  -5.83208403E-04
  1 131 83      -0.00514899
  1 50 115  -2.89868803E-04
  1 104 82  -3.25339590E-04
  1 93 66  -5.72109479E-05
  1 91 61  -6.86531374E-05
  1 105 63  -7.77706555E-04
  1 143 106      -0.00528805
  1 121 132      -0.00141727
  1 113 128      -0.00570342
  1 121 132      -0.00568416
  1 128 136      -0.00742486
  1 121 132      -0.00603600
  1 121 132      -0.00548314
  1 121 132      -0.00270804
  1 126 101      -0.00168036
  1 106 118      -0.00400347
  1 113 121      -0.00174059
  1 115 97      -0.00373059
  1 110 89  -1.31013071E-05
  1 118 84      -0.00683656
  1 88 136      -0.00245244
  1 76 142      -0.00530338
  1 95 133      -0.00703058
  1 87 134      -0.00497995
  1 89 140      -0.00630253
  1 79 139      -0.01098227
  1 96 142      -0.00449320
  1 143 106      -0.00337060
  1 142 107      -0.00221031
  1 143 107      -0.00893543
  1 131 137  -5.14898531E-04
  1 129 133      -0.00649125
  1 121 132      -0.00376391
  1 126 127  -8.08486045E-04
  1 128 136      -0.03187840
  1 112 101      -0.00244850
  1 127 115      -0.00474714
  1 120 110      -0.00438514
  1 123 110      -0.00440951
  1 125 112      -0.00498258
  1 127 113      -0.00546889
  1 119 120      -0.00264004
  1 131 122      -0.00221773
  1 114 110      -0.00652478
  1 124 101  -5.59523070E-04
  1 125 117      -0.00728976
  1 126 103      -0.00494406
  1 158 84      -0.01241401
  1 146 100      -0.00228331
  1 162 77      -0.00475415
  1 153 92  -3.79575569E-04
  1 105 88      -0.00672124
  1 128 90  -4.70350273E-04
  1 123 78      -0.00407155
  1 126 68      -0.00701870
  1 112 64      -0.01084672
  1 134 72      -0.00743742
  1 128 70  -6.03117812E-04
  1 116 66      -0.01095780
  1 114 67  -6.38779303E-04
  1 107 22      -0.00556283
  1 86 142  -1.47852160E-04
  1 101 131      -0.00468699
  1 80 130      -0.00147824
  1 87 116  -3.81406319E-04
  1 103 122  -5.72109479E-06
  1 83 110  -8.20023586E-05
  1 98 107      -0.00732655
  1 85 104      -0.00215716
  1 90 107  -2.21215665E-06
  1 82 103      -0.00339844
  1 99 114  -8.05530146E-04
  1 64 130      -0.00253870
  1 69 136      -0.00287205
  1 59 126      -0.00260493
  1 70 133      -0.00297871
  1 65 129      -0.00968148
  1 62 134      -0.00360543
  1 59 132      -0.00563686
  1 55 131      -0.00884424
  1 71 107      -0.01015502
  1 69 121      -0.00478072
  1 42 112      -0.00413835
  1 68 108  -2.28843791E-05
  1 45 120  -8.58164218E-05
  1 62 124      -0.00272046
  1 51 109  -1.30021414E-04
  1 62 99  -9.05229758E-04
  1 85 87      -0.00544515
  1 92 96      -0.00541961
  1 96 97  -1.04963019E-04
  1 102 87  -7.03160690E-04
  1 86 88      -0.00654566
  1 90 97  -2.57048789E-04
  1 88 78      -0.00662369
  1 86 91      -0.00606413
  1 96 55      -0.00915770
  1 94 56      -0.01642219
  1 94 56      -0.00123209
  1 93 75  -3.04705508E-04
  1 103 64  -2.28843791E-04
  1 92 70      -0.00537466
  1 100 57      -0.06976755
  1 91 40  -8.40047418E-05
  1 94 45      -0.04112683
  1 94 45      -0.01299974
  1 92 51      -0.00835572
  1 104 38  -9.69725566E-05
  1 70 98      -0.00538183
  1 71 93      -0.00192646
  1 60 93  -2.00238318E-04
  1 62 98      -0.00523633
  1 143 108  -2.13396836E-04
  1 131 122      -0.01027327
  1 116 66      -0.01186389
  1 73 135      -0.00232029
  1 86 142  -1.23709140E-04
  1 78 109      -0.00163040
  1 82 103      -0.00339844
  1 57 136      -0.00513142
  1 59 126      -0.00669259
  1 60 125      -0.00318200
  1 59 133      -0.00266788
  1 60 125      -0.00307413
  1 63 108      -0.00154172
  1 62 124      -0.00385812
  1 56 108  -4.56505223E-04
  1 96 55      -0.01357326
  1 38 144      -0.00584864
  1 136 133  -1.33492212E-04
  1 120 101  -2.39713872E-04
  1 124 106  -2.28843791E-04
  1 123 107  -1.43027370E-05
  1 93 84  -1.23194241E-04
  1 87 132  -9.53515798E-04
  1 109 89  -1.30440961E-04
  1 57 116  -1.14421896E-04
  1 70 123      -0.00152563
  1 76 126  -4.00476635E-04
  1 106 87  -5.22526657E-05
  1 132 137  -1.22050022E-04
  1 128 126  -2.13587539E-04
  1 100 40  -2.80333645E-04
  1 101 27  -1.11656700E-04
  1 100 47  -3.05125055E-04
  1 94 53  -1.08700801E-04
  1 94 38  -1.71632844E-04
  1 96 42  -1.86889096E-04
  1 92 43  -3.81406319E-04
  1 97 42  -3.05125055E-04
  1 94 40  -1.14421896E-04
  1 98 42  -2.66030908E-04
  1 96 41  -1.19380178E-04
  1 95 44  -3.41358656E-04
  1 95 44  -6.67461058E-05
  1 95 40  -1.27771117E-04
  1 138 116  -8.32228588E-05
  1 136 127  -7.62812638E-05
  1 135 121  -1.75160852E-04
  1 83 106  -7.62812638E-05
  1 69 111      -0.00114422
  1 71 115  -4.57687583E-04
  1 73 115  -2.86054739E-05
  1 72 117  -3.81406319E-04
  1 68 106  -6.10250111E-05
  1 70 109  -3.81406319E-04
  1 72 114  -5.72109479E-05
  1 73 117  -1.06793769E-04
  1 66 107  -3.71871161E-04
  1 59 93  -2.86054739E-04
  1 101 59  -2.28843791E-04
  1 103 58  -2.28843791E-04
  1 104 67  -2.28843791E-04
  1 99 63  -4.29082109E-05
  1 103 63  -2.28843791E-04
  1 96 61  -2.28843791E-04
  1 99 65  -2.28843791E-04
  1 100 65  -2.96352710E-04
  1 140 118      -0.00509177
  1 58 129  -1.14421896E-04
  1 58 128  -1.71632844E-04
  1 55 130  -1.60190654E-04
  1 56 125  -6.86531374E-05
  1 60 122  -1.14421896E-04
  1 62 125  -4.34803204E-04
  1 59 131  -7.62812638E-05
  1 61 130  -1.52562528E-05
  1 59 129  -3.81406319E-04
  1 44 120  -1.14421896E-04
  1 43 120  -1.43027370E-04
  1 108 65  -2.13587539E-04
  1 67 134  -7.24672006E-05
  1 68 140  -9.15375166E-05
  1 67 133  -3.50893814E-04
  1 67 135  -7.62812638E-04
  1 67 136  -7.62812638E-04
  1 67 135  -1.52562528E-04
  1 73 130  -5.72109479E-04
  1 73 129  -2.28843791E-04
  1 76 130  -2.74612550E-04
  1 72 132  -3.47079750E-04
  1 73 132  -1.90703160E-04
  1 73 127  -3.24195371E-04
  1 105 80  -1.22050022E-04
  1 83 129  -3.05125055E-04
  1 83 127  -9.15375166E-05
  1 83 125  -3.05125055E-04
  1 83 124  -3.81406319E-04
  1 81 123  -1.60190654E-04
  1 84 122  -7.62812638E-05
  1 82 123  -6.10250111E-05
  1 82 131  -1.14421896E-04
  1 84 124  -6.10250111E-05
  1 83 129  -4.50059457E-05
  1 84 124  -7.36114196E-04
  1 77 129  -5.18712594E-04
  1 149 106  -3.43265687E-04
  1 90 79  -9.53515798E-05
  1 38 113  -1.14421896E-04
  1 98 56  -1.23957054E-05
  1 79 121  -3.05125055E-04
  1 77 120  -9.53515798E-05
  1 105 52  -9.22278620E-04
  1 108 80  -2.28843791E-04
  1 108 59  -2.57449265E-04
  1 77 118  -1.02979706E-04
  1 132 134      -0.00139539
  1 98 34  -6.52262017E-04
  1 101 49  -3.81787725E-04
  1 97 44  -1.71632844E-04
  1 94 44  -7.15136848E-05
  1 95 44  -2.83766301E-04
  1 84 109  -1.71632844E-04
  1 88 115  -4.91232269E-04
  1 116 90  -6.44767382E-04
  1 88 99  -1.71632844E-04
  1 104 69      -0.00457688
  1 100 66  -1.14421896E-04
  1 44 119  -1.37306275E-04
  1 106 79  -5.72109479E-04
  1 119 88  -4.01620854E-04
  1 82 126  -3.05125055E-04
  1 82 127  -1.14421896E-04
  1 82 127  -7.32300133E-05
  1 77 127  -4.38617267E-04
  1 33 121      -0.00117187
  1 103 59  -3.43265687E-04
  1 110 81  -5.33968847E-05
  1 62 96  -3.54555314E-04
  1 60 91  -3.43265687E-04
  1 102 68  -4.04290698E-04
  1 55 131      -0.00451966
  1 57 125  -3.24195371E-04
  1 54 117  -3.43265687E-04
  1 57 134  -7.62812638E-05
  1 61 135  -2.66984423E-05
  1 62 135  -3.81406319E-04
  1 59 130  -1.62479092E-04
  1 105 130  -2.19308633E-04
  1 46 117  -2.82240676E-05
  1 43 115  -8.58164218E-05
  1 45 111  -1.79642376E-04
  1 48 110  -3.81406319E-05
  1 113 119      -0.00139539
  1 106 73  -8.00953270E-04
  1 105 75  -7.43742322E-04
  1 115 65  -9.91656430E-05
  1 108 76      -0.00143027
  1 107 62  -9.68772050E-05
  1 111 68  -1.85401612E-04
  1 68 138  -2.25792541E-04
  1 67 134  -3.81406319E-04
  1 68 135  -1.90703160E-04
  1 105 80  -7.97520613E-04
  1 108 76  -2.25029728E-04
  1 79 127  -4.76757899E-04
  1 81 128  -5.72109479E-05
  1 78 127  -2.91775834E-04
  1 80 130  -4.72943836E-05
  1 82 126  -1.90703160E-04
  1 81 128      -0.00133492
  1 82 132  -2.86054739E-05
  1 81 128  -8.65792344E-04
  1 96 58      -0.00244186
  1 80 131      -0.00177295
  1 116 129  -1.71632844E-04
  1 133 129      -0.01032057
  1 133 138  -4.19546951E-05
  1 125 135  -5.33968847E-04
  1 93 84  -5.93086826E-05
  1 85 114  -1.14421896E-04
  1 86 120  -6.39389553E-04
  1 81 123  -1.25864085E-04
  1 83 115  -9.50083141E-05
  1 107 25      -0.00320381
  1 107 22  -6.17306127E-04
  1 151 90  -2.35594683E-04
  1 86 132      -0.00114422
  1 109 88  -3.81406319E-04
  1 105 93  -3.43265687E-04
  1 68 115  -9.34140357E-04
  1 74 126  -3.73778193E-04
  1 69 118  -1.22050022E-04
  1 129 125      -0.01246148
  1 131 127      -0.00170548
  1 132 137  -9.15375166E-05
  1 129 139  -3.96662572E-04
  1 128 131  -5.72109479E-05
  1 132 130  -7.62812638E-05
  1 126 125  -1.90703160E-04
  1 125 128  -3.90712633E-04
  1 60 90      -0.00230429
  1 106 27  -2.97496929E-04
  1 100 41  -1.75446907E-04
  1 97 36  -5.47699474E-04
  1 129 134  -5.03456341E-04
  1 125 137  -1.33492212E-04
  1 126 137  -1.90703160E-04
  1 128 135  -7.62812638E-05
  1 152 100      -0.00211209
  1 136 127  -1.37306275E-04
  1 135 128  -6.10250111E-05
  1 135 120  -3.58140534E-05
  1 141 129  -4.51947418E-04
  1 136 121  -4.08142902E-04
  1 140 121  -3.81406319E-04
  1 90 111  -1.54278856E-04
  1 88 118  -2.23694806E-04
  1 83 107  -2.28843791E-04
  1 79 108  -8.90011646E-05
  1 96 97  -3.63098816E-05
  1 93 76  -1.90703160E-04
  1 95 67  -3.05125055E-05
  1 72 115  -3.81406319E-04
  1 72 111  -1.90703160E-04
  1 70 114  -1.90703160E-04
  1 66 107  -2.25792541E-04
  1 71 117      -0.00107747
  1 73 112  -6.88438406E-04
  1 68 108  -7.62812638E-04
  1 73 117  -7.62812638E-04
  1 72 112  -1.90703160E-04
  1 66 108  -2.86054739E-04
  1 112 101  -4.76757899E-06
  1 145 129      -0.00171633
  1 84 139      -0.00114422
  1 81 140  -5.01549310E-04
  1 81 140  -2.40285981E-04
  1 81 140  -5.72109479E-04
  1 81 137  -2.31551776E-04
  1 100 58  -1.02979706E-04
  1 101 57  -8.00953270E-04
  1 99 61  -1.43027370E-04
  1 103 65  -1.29678148E-04
  1 99 67  -4.06197730E-05
  1 104 69      -0.00137306
  1 105 61  -2.28843791E-04
  1 106 61  -2.28843791E-04
  1 103 63  -2.28843791E-04
  1 80 130  -8.58164218E-04
  1 78 127  -1.90703160E-04
  1 77 126  -1.14421896E-04
  1 82 132  -3.05125055E-04
  1 84 128  -5.72109479E-05
  1 84 129  -5.14898531E-04
  1 82 124  -3.81406319E-05
  1 131 92  -4.51775785E-05
  1 91 77  -3.81406319E-05
  1 134 72      -0.00673258
  1 38 144      -0.00613418
  1 129 91  -1.80290767E-04
  1 99 57  -1.31585180E-04
  1 42 112  -9.27770871E-05
  1 140 114      -0.00665329
  1 69 131  -5.72109479E-04
  1 69 130  -2.86054739E-04
  1 107 38  -3.43265687E-04
  1 146 137  -1.77086954E-04
  1 83 127  -2.40285981E-04
  1 61 96  -3.35065451E-05
  1 137 137  -2.13587539E-04
END period  2

BEGIN period  3
  1 101 130      -0.00612908
  1 81 137      -0.00290590
  1 98 117  -8.06517420E-04
  1 97 118      -0.01209306
  1 79 109  -4.94132564E-04
  1 78 114      -0.00713629
  1 78 114      -0.01242538
  1 94 116      -0.00906865
  1 105 117      -0.00530291
  1 70 133      -0.00332299
  1 94 80      -0.00257203
  1 96 81      -0.00980929
  1 104 89      -0.01588924
  1 90 97      -0.01568397
  1 90 94  -5.95545446E-04
  1 91 85      -0.00509904
  1 94 58      -0.02882861
  1 100 62      -0.00243248
  1 94 42      -0.00237231
  1 95 41  -5.27908499E-05
  1 63 88      -0.00595209
  1 91 59      -0.00273198
  1 88 135      -0.00563007
  1 68 101      -0.01125789
  1 101 68  -6.50463244E-04
  1 131 83      -0.00574276
  1 50 115  -3.23296099E-04
  1 104 82  -3.62857332E-04
  1 93 66  -6.38084406E-05
  1 91 61  -7.65701288E-05
  1 105 63  -8.67390673E-04
  1 143 106      -0.00589786
  1 121 132      -0.00158071
  1 113 128      -0.00636113
  1 121 132      -0.00633965
  1 128 136      -0.00828108
  1 121 132      -0.00673207
  1 121 132      -0.00611544
  1 121 132      -0.00302033
  1 126 101      -0.00187414
  1 106 118      -0.00446514
  1 113 121      -0.00194131
  1 115 97      -0.00416080
  1 110 89  -1.46121329E-05
  1 118 84      -0.00762494
  1 88 136      -0.00273526
  1 76 142      -0.00591496
  1 95 133      -0.00784133
  1 87 134      -0.00555423
  1 89 140      -0.00702933
  1 79 139      -0.01224873
  1 96 142      -0.00501134
  1 143 106      -0.00375930
  1 142 107      -0.00246520
  1 143 107      -0.00996586
  1 131 137  -5.74275966E-04
  1 129 133      -0.00723981
  1 121 132      -0.00419796
  1 126 127  -9.01719614E-04
  1 128 136      -0.03555457
  1 112 101      -0.00273085
  1 127 115      -0.00529457
  1 120 110      -0.00489083
  1 123 110      -0.00491801
  1 125 112      -0.00555716
  1 127 113      -0.00609956
  1 119 120      -0.00294448
  1 131 122      -0.00247347
  1 114 110      -0.00727720
  1 124 101  -6.24046550E-04
  1 125 117      -0.00813041
  1 126 103      -0.00551420
  1 158 84      -0.01384558
  1 146 100      -0.00254662
  1 162 77      -0.00530240
  1 153 92  -4.23347734E-04
  1 105 88      -0.00749632
  1 128 90  -5.24590460E-04
  1 123 78      -0.00454108
  1 126 68      -0.00782808
  1 112 64      -0.01209755
  1 134 72      -0.00829510
  1 128 70  -6.72668581E-04
  1 116 66      -0.01222144
  1 114 67  -7.12442509E-04
  1 107 22      -0.00620433
  1 86 142  -1.64902280E-04
  1 101 131      -0.00522749
  1 80 130      -0.00164870
  1 87 116  -4.25389604E-04
  1 103 122  -6.38084406E-06
  1 83 110  -9.14587649E-05
  1 98 107      -0.00817144
  1 85 104      -0.00240592
  1 90 107  -2.46725971E-06
  1 82 103      -0.00379035
  1 99 114  -8.98422844E-04
  1 64 130      -0.00283146
  1 69 136      -0.00320325
  1 59 126      -0.00290533
  1 70 133      -0.00332221
  1 65 129      -0.01079794
  1 62 134      -0.00402121
  1 59 132      -0.00628690
  1 55 131      -0.00986415
  1 71 107      -0.01132608
  1 69 121      -0.00533202
  1 42 112      -0.00461558
  1 68 108  -2.55233763E-05
  1 45 120  -9.57126610E-05
  1 62 124      -0.00303418
  1 51 109  -1.45015316E-04
  1 62 99      -0.00100962
  1 85 87      -0.00607307
  1 92 96      -0.00604459
  1 96 97  -1.17067219E-04
  1 102 87  -7.84248275E-04
  1 86 88      -0.00730049
  1 90 97  -2.86691324E-04
  1 88 78      -0.00738753
  1 86 91      -0.00676344
  1 96 55      -0.01021375
  1 94 56      -0.01831598
  1 94 56      -0.00137418
  1 93 75  -3.39843755E-04
  1 103 64  -2.55233763E-04
  1 92 70      -0.00599446
  1 100 57      -0.07781305
  1 91 40  -9.36920604E-05
  1 94 45      -0.04586953
  1 94 45      -0.01449885
  1 92 51      -0.00931929
  1 104 38  -1.08155307E-04
  1 70 98      -0.00600246
  1 71 93      -0.00214862
  1 60 93  -2.23329542E-04
  1 62 98      -0.00584017
  1 143 108  -2.38005484E-04
  1 131 122      -0.01145798
  1 116 66      -0.01323202
  1 73 135      -0.00258786
  1 86 142  -1.37975118E-04
  1 78 109      -0.00181841
  1 82 103      -0.00379035
  1 57 136      -0.00572317
  1 59 126      -0.00746438
  1 60 125      -0.00354894
  1 59 133      -0.00297554
  1 60 125      -0.00342864
  1 63 108      -0.00171951
  1 62 124      -0.00430303
  1 56 108  -5.09148817E-04
  1 96 55      -0.01513851
  1 38 144      -0.00652309
  1 136 133  -1.48886362E-04
  1 120 101  -2.67357366E-04
  1 124 106  -2.55233763E-04
  1 123 107  -1.59521102E-05
  1 93 84  -1.37400842E-04
  1 87 132      -0.00106347
  1 109 89  -1.45483245E-04
  1 57 116  -1.27616881E-04
  1 70 123      -0.00170156
  1 76 126  -4.46659085E-04
  1 106 87  -5.82783758E-05
  1 132 137  -1.36124673E-04
  1 128 126  -2.38218178E-04
  1 100 40  -3.12661359E-04
  1 101 27  -1.24532807E-04
  1 100 47  -3.40311683E-04
  1 94 53  -1.21236037E-04
  1 94 38  -1.91425322E-04
  1 96 42  -2.08440906E-04
  1 92 43  -4.25389604E-04
  1 97 42  -3.40311683E-04
  1 94 40  -1.27616881E-04
  1 98 42  -2.96709249E-04
  1 96 41  -1.33146946E-04
  1 95 44  -3.80723696E-04
  1 95 44  -7.44431808E-05
  1 95 40  -1.42505517E-04
  1 138 116  -9.28200117E-05
  1 136 127  -8.50779209E-05
  1 135 121  -1.95360176E-04
  1 83 106  -8.50779209E-05
  1 69 111      -0.00127617
  1 71 115  -5.10467525E-04
  1 73 115  -3.19042203E-05
  1 72 117  -4.25389604E-04
  1 68 106  -6.80623367E-05
  1 70 109  -4.25389604E-04
  1 72 114  -6.38084406E-05
  1 73 117  -1.19109089E-04
  1 66 107  -4.14754864E-04
  1 59 93  -3.19042203E-04
  1 101 59  -2.55233763E-04
  1 103 58  -2.55233763E-04
  1 104 67  -2.55233763E-04
  1 99 63  -4.78563305E-05
  1 103 63  -2.55233763E-04
  1 96 61  -2.55233763E-04
  1 99 65  -2.55233763E-04
  1 100 65  -3.30527723E-04
  1 140 118      -0.00567895
  1 58 129  -1.27616881E-04
  1 58 128  -1.91425322E-04
  1 55 130  -1.78663634E-04
  1 56 125  -7.65701288E-05
  1 60 122  -1.27616881E-04
  1 62 125  -4.84944149E-04
  1 59 131  -8.50779209E-05
  1 61 130  -1.70155842E-05
  1 59 129  -4.25389604E-04
  1 44 120  -1.27616881E-04
  1 43 120  -1.59521102E-04
  1 108 65  -2.38218178E-04
  1 67 134  -8.08240248E-05
  1 68 140  -1.02093505E-04
  1 67 133  -3.91358436E-04
  1 67 135  -8.50779209E-04
  1 67 136  -8.50779209E-04
  1 67 135  -1.70155842E-04
  1 73 130  -6.38084406E-04
  1 73 129  -2.55233763E-04
  1 76 130  -3.06280515E-04
  1 72 132  -3.87104540E-04
  1 73 132  -2.12694802E-04
  1 73 127  -3.61581164E-04
  1 105 80  -1.36124673E-04
  1 83 129  -3.40311683E-04
  1 83 127  -1.02093505E-04
  1 83 125  -3.40311683E-04
  1 83 124  -4.25389604E-04
  1 81 123  -1.78663634E-04
  1 84 122  -8.50779209E-05
  1 82 123  -6.80623367E-05
  1 82 131  -1.27616881E-04
  1 84 124  -6.80623367E-05
  1 83 129  -5.01959733E-05
  1 84 124  -8.21001936E-04
  1 77 129  -5.78529862E-04
  1 149 106  -3.82850644E-04
  1 90 79  -1.06347401E-04
  1 38 113  -1.27616881E-04
  1 98 56  -1.38251621E-05
  1 79 121  -3.40311683E-04
  1 77 120  -1.06347401E-04
  1 105 52      -0.00102863
  1 108 80  -2.55233763E-04
  1 108 59  -2.87137983E-04
  1 77 118  -1.14855193E-04
  1 132 134      -0.00155631
  1 98 34  -7.27480032E-04