pcf
* control data
             restart          estimation
        95       122         1         0         1         0
         1         1              single               point         1         0         0          noobsreref
   2.000000E+01  -3.000000E+00   3.000000E-01   1.000000E-02        -7       999          lamforgive        noderforgive
   1.000000E+01   1.000000E+01   1.000000E-03         0         0
   1.000000E-01         1   1.100000E+00               noaui          nosenreuse        noboundscale
         6   1.000000E-02         3         3   1.000000E-02         3   0.000000E+00         1  -1.000000E+00
         0         0         0         0             jcosave          verboserec          jcosaveitn          reisaveitn          parsaveitn        noparsaverun
* singular value decomposition
         1
  10000000    1.000000E-06
1
* parameter groups
 kp_inst:0               relative              1.0000000000E-02       0  switch                2.0000000000E+00       parabolic              1.0000000000E-05       5.0000000000E-01       smaller              
* parameter data
  kp_inst:0_i:15_j:125   log                    factor                1.0000000000E+00      1.0000000000E-02      1.0000000000E+02       kp_inst:0             1.0000000000E+00      0.0000000000E+00       1          
  kp_inst:0_i:35_j:125   log                    factor                1.0000000000E+00      1.0000000000E-02      1.0000000000E+02       kp_inst:0             1.0000000000E+00      0.0000000000E+00       1          
  kp_inst:0_i:45_j:105   log                    factor                1.0000000000E+00      1.0000000000E-02      1.0000000000E+02       kp_inst:0             1.0000000000E+00      0.0000000000E+00       1          
  kp_inst:0_i:45_j:115   log                    factor                1.0000000000E+00      1.0000000000E-02      1.0000000000E+02       kp_inst:0             1.0000000000E+00      0.0000000000E+00       1          
  kp_inst:0_i:45_j:125   log                    factor                1.0000000000E+00      1.0000000000E-02      1.0000000000E+02       kp_inst:0             1.0000000000E+00      0.0000000000E+00       1          
  kp_inst:0_i:55_j:95    log                    factor                1.0000000000E+00      1.0000000000E-02      1.0000000000E+02       kp_inst:0             1.0000000000E+00      0.0000000000E+00       1          
  kp_inst:0_i:55_j:105   log                    factor                1.0000000000E+00      1.0000000000E-02      1.0000000000E+02       kp_inst:0             1.0000000000E+00      0.0000000000E+00       1          
  kp_inst:0_i:55_j:115   log                    factor                1.0000000000E+00      1.0000000000E-02      1.0000000000E+02       kp_inst:0             1.0000000000E+00      0.0000000000E+00       1          
  kp_inst:0_i:55_j:125   log                    factor                1.0000000000E+00      1.0000000000E-02      1.0000000000E+02       kp_inst:0             1.0000000000E+00      0.0000000000E+00       1          
  kp_inst:0_i:65_j:75    log                    factor                1.0000000000E+00      1.0000000000E-02      1.0000000000E+02       kp_inst:0             1.0000000000E+00      0.0000000000E+00       1          
  kp_inst:0_i:65_j:85    log                    factor                1.0000000000E+00      1.0000000000E-02      1.0000000000E+02       kp_inst:0             1.0000000000E+00      0.0000000000E+00       1          
  kp_inst:0_i:65_j:95    log                    factor                1.0000000000E+00      1.0000000000E-02      1.0000000000E+02       kp_inst:0             1.0000000000E+00      0.0000000000E+00       1          
  kp_inst:0_i:65_j:105   log                    factor                1.0000000000E+00      1.0000000000E-02      1.0000000000E+02       kp_inst:0             1.0000000000E+00      0.0000000000E+00       1          
  kp_inst:0_i:65_j:115   log                    factor                1.0000000000E+00      1.0000000000E-02      1.0000000000E+02       kp_inst:0             1.0000000000E+00      0.0000000000E+00       1          
  kp_inst:0_i:65_j:125   log                    factor                1.0000000000E+00      1.0000000000E-02      1.0000000000E+02       kp_inst:0             1.0000000000E+00      0.0000000000E+00       1          
  kp_inst:0_i:75_j:75    log                    factor                1.0000000000E+00      1.0000000000E-02      1.0000000000E+02       kp_inst:0             1.0000000000E+00      0.0000000000E+00       1          
  kp_inst:0_i:75_j:85    log                    factor                1.0000000000E+00      1.0000000000E-02      1.0000000000E+02       kp_inst:0             1.0000000000E+00      0.0000000000E+00       1          
  kp_inst:0_i:75_j:95    log                    factor                1.0000000000E+00      1.0000000000E-02      1.0000000000E+02       kp_inst:0             1.0000000000E+00      0.0000000000E+00       1          
  kp_inst:0_i:75_j:105   log                    factor                1.0000000000E+00      1.0000000000E-02      1.0000000000E+02       kp_inst:0             1.0000000000E+00      0.0000000000E+00       1          
  kp_inst:0_i:75_j:115   log                    factor                1.0000000000E+00      1.0000000000E-02      1.0000000000E+02       kp_inst:0             1.0000000000E+00      0.0000000000E+00       1          
  kp_inst:0_i:75_j:125   log                    factor                1.0000000000E+00      1.0000000000E-02      1.0000000000E+02       kp_inst:0             1.0000000000E+00      0.0000000000E+00       1          
  kp_inst:0_i:85_j:65    log                    factor                1.0000000000E+00      1.0000000000E-02      1.0000000000E+02       kp_inst:0             1.0000000000E+00      0.0000000000E+00       1          
  kp_inst:0_i:85_j:75    log                    factor                1.0000000000E+00      1.0000000000E-02      1.0000000000E+02       kp_inst:0             1.0000000000E+00      0.0000000000E+00       1          
  kp_inst:0_i:85_j:85    log                    factor                1.0000000000E+00      1.0000000000E-02      1.0000000000E+02       kp_inst:0             1.0000000000E+00      0.0000000000E+00       1          
  kp_inst:0_i:85_j:95    log                    factor                1.0000000000E+00      1.0000000000E-02      1.0000000000E+02       kp_inst:0             1.0000000000E+00      0.0000000000E+00       1          
  kp_inst:0_i:85_j:105   log                    factor                1.0000000000E+00      1.0000000000E-02      1.0000000000E+02       kp_inst:0             1.0000000000E+00      0.0000000000E+00       1          
  kp_inst:0_i:85_j:115   log                    factor                1.0000000000E+00      1.0000000000E-02      1.0000000000E+02       kp_inst:0             1.0000000000E+00      0.0000000000E+00       1          
  kp_inst:0_i:85_j:125   log                    factor                1.0000000000E+00      1.0000000000E-02      1.0000000000E+02       kp_inst:0             1.0000000000E+00      0.0000000000E+00       1          
  kp_inst:0_i:95_j:35    log                    factor                1.0000000000E+00      1.0000000000E-02      1.0000000000E+02       kp_inst:0             1.0000000000E+00      0.0000000000E+00       1          
  kp_inst:0_i:95_j:45    log                    factor                1.0000000000E+00      1.0000000000E-02      1.0000000000E+02       kp_inst:0             1.0000000000E+00      0.0000000000E+00       1          
  kp_inst:0_i:95_j:55    log                    factor                1.0000000000E+00      1.0000000000E-02      1.0000000000E+02       kp_inst:0             1.0000000000E+00      0.0000000000E+00       1          
  kp_inst:0_i:95_j:65    log                    factor                1.0000000000E+00      1.0000000000E-02      1.0000000000E+02       kp_inst:0             1.0000000000E+00      0.0000000000E+00       1          
  kp_inst:0_i:95_j:75    log                    factor                1.0000000000E+00      1.0000000000E-02      1.0000000000E+02       kp_inst:0             1.0000000000E+00      0.0000000000E+00       1          
  kp_inst:0_i:95_j:85    log                    factor                1.0000000000E+00      1.0000000000E-02      1.0000000000E+02       kp_inst:0             1.0000000000E+00      0.0000000000E+00       1          
  kp_inst:0_i:95_j:95    log                    factor                1.0000000000E+00      1.0000000000E-02      1.0000000000E+02       kp_inst:0             1.0000000000E+00      0.0000000000E+00       1          
  kp_inst:0_i:95_j:105   log                    factor                1.0000000000E+00      1.0000000000E-02      1.0000000000E+02       kp_inst:0             1.0000000000E+00      0.0000000000E+00       1          
  kp_inst:0_i:95_j:115   log                    factor                1.0000000000E+00      1.0000000000E-02      1.0000000000E+02       kp_inst:0             1.0000000000E+00      0.0000000000E+00       1          
  kp_inst:0_i:95_j:125   log                    factor                1.0000000000E+00      1.0000000000E-02      1.0000000000E+02       kp_inst:0             1.0000000000E+00      0.0000000000E+00       1          
  kp_inst:0_i:105_j:15   log                    factor                1.0000000000E+00      1.0000000000E-02      1.0000000000E+02       kp_inst:0             1.0000000000E+00      0.0000000000E+00       1          
  kp_inst:0_i:105_j:25   log                    factor                1.0000000000E+00      1.0000000000E-02      1.0000000000E+02       kp_inst:0             1.0000000000E+00      0.0000000000E+00       1          
  kp_inst:0_i:105_j:35   log                    factor                1.0000000000E+00      1.0000000000E-02      1.0000000000E+02       kp_inst:0             1.0000000000E+00      0.0000000000E+00       1          
  kp_inst:0_i:105_j:45   log                    factor                1.0000000000E+00      1.0000000000E-02      1.0000000000E+02       kp_inst:0             1.0000000000E+00      0.0000000000E+00       1          
  kp_inst:0_i:105_j:55   log                    factor                1.0000000000E+00      1.0000000000E-02      1.0000000000E+02       kp_inst:0             1.0000000000E+00      0.0000000000E+00       1          
  kp_inst:0_i:105_j:65   log                    factor                1.0000000000E+00      1.0000000000E-02      1.0000000000E+02       kp_inst:0             1.0000000000E+00      0.0000000000E+00       1          
  kp_inst:0_i:105_j:75   log                    factor                1.0000000000E+00      1.0000000000E-02      1.0000000000E+02       kp_inst:0             1.0000000000E+00      0.0000000000E+00       1          
  kp_inst:0_i:105_j:85   log                    factor                1.0000000000E+00      1.0000000000E-02      1.0000000000E+02       kp_inst:0             1.0000000000E+00      0.0000000000E+00       1          
  kp_inst:0_i:105_j:95   log                    factor                1.0000000000E+00      1.0000000000E-02      1.0000000000E+02       kp_inst:0             1.0000000000E+00      0.0000000000E+00       1          
 kp_inst:0_i:105_j:105   log                    factor                1.0000000000E+00      1.0000000000E-02      1.0000000000E+02       kp_inst:0             1.0000000000E+00      0.0000000000E+00       1          
 kp_inst:0_i:105_j:115   log                    factor                1.0000000000E+00      1.0000000000E-02      1.0000000000E+02       kp_inst:0             1.0000000000E+00      0.0000000000E+00       1          
 kp_inst:0_i:105_j:125   log                    factor                1.0000000000E+00      1.0000000000E-02      1.0000000000E+02       kp_inst:0             1.0000000000E+00      0.0000000000E+00       1          
  kp_inst:0_i:115_j:5    log                    factor                1.0000000000E+00      1.0000000000E-02      1.0000000000E+02       kp_inst:0             1.0000000000E+00      0.0000000000E+00       1          
  kp_inst:0_i:115_j:35   log                    factor                1.0000000000E+00      1.0000000000E-02      1.0000000000E+02       kp_inst:0             1.0000000000E+00      0.0000000000E+00       1          
  kp_inst:0_i:115_j:45   log                    factor                1.0000000000E+00      1.0000000000E-02      1.0000000000E+02       kp_inst:0             1.0000000000E+00      0.0000000000E+00       1          
  kp_inst:0_i:115_j:55   log                    factor                1.0000000000E+00      1.0000000000E-02      1.0000000000E+02       kp_inst:0             1.0000000000E+00      0.0000000000E+00       1          
  kp_inst:0_i:115_j:65   log                    factor                1.0000000000E+00      1.0000000000E-02      1.0000000000E+02       kp_inst:0             1.0000000000E+00      0.0000000000E+00       1          
  kp_inst:0_i:115_j:75   log                    factor                1.0000000000E+00      1.0000000000E-02      1.0000000000E+02       kp_inst:0             1.0000000000E+00      0.0000000000E+00       1          
  kp_inst:0_i:115_j:85   log                    factor                1.0000000000E+00      1.0000000000E-02      1.0000000000E+02       kp_inst:0             1.0000000000E+00      0.0000000000E+00       1          
  kp_inst:0_i:115_j:95   log                    factor                1.0000000000E+00      1.0000000000E-02      1.0000000000E+02       kp_inst:0             1.0000000000E+00      0.0000000000E+00       1          
 kp_inst:0_i:115_j:105   log                    factor                1.0000000000E+00      1.0000000000E-02      1.0000000000E+02       kp_inst:0             1.0000000000E+00      0.0000000000E+00       1          
 kp_inst:0_i:115_j:115   log                    factor                1.0000000000E+00      1.0000000000E-02      1.0000000000E+02       kp_inst:0             1.0000000000E+00      0.0000000000E+00       1          
 kp_inst:0_i:115_j:125   log                    factor                1.0000000000E+00      1.0000000000E-02      1.0000000000E+02       kp_inst:0             1.0000000000E+00      0.0000000000E+00       1          
  kp_inst:0_i:125_j:55   log                    factor                1.0000000000E+00      1.0000000000E-02      1.0000000000E+02       kp_inst:0             1.0000000000E+00      0.0000000000E+00       1          
  kp_inst:0_i:125_j:65   log                    factor                1.0000000000E+00      1.0000000000E-02      1.0000000000E+02       kp_inst:0             1.0000000000E+00      0.0000000000E+00       1          
  kp_inst:0_i:125_j:75   log                    factor                1.0000000000E+00      1.0000000000E-02      1.0000000000E+02       kp_inst:0             1.0000000000E+00      0.0000000000E+00       1          
  kp_inst:0_i:125_j:85   log                    factor                1.0000000000E+00      1.0000000000E-02      1.0000000000E+02       kp_inst:0             1.0000000000E+00      0.0000000000E+00       1          
  kp_inst:0_i:125_j:95   log                    factor                1.0000000000E+00      1.0000000000E-02      1.0000000000E+02       kp_inst:0             1.0000000000E+00      0.0000000000E+00       1          
 kp_inst:0_i:125_j:105   log                    factor                1.0000000000E+00      1.0000000000E-02      1.0000000000E+02       kp_inst:0             1.0000000000E+00      0.0000000000E+00       1          
 kp_inst:0_i:125_j:115   log                    factor                1.0000000000E+00      1.0000000000E-02      1.0000000000E+02       kp_inst:0             1.0000000000E+00      0.0000000000E+00       1          
 kp_inst:0_i:125_j:125   log                    factor                1.0000000000E+00      1.0000000000E-02      1.0000000000E+02       kp_inst:0             1.0000000000E+00      0.0000000000E+00       1          
  kp_inst:0_i:135_j:55   log                    factor                1.0000000000E+00      1.0000000000E-02      1.0000000000E+02       kp_inst:0             1.0000000000E+00      0.0000000000E+00       1          
  kp_inst:0_i:135_j:65   log                    factor                1.0000000000E+00      1.0000000000E-02      1.0000000000E+02       kp_inst:0             1.0000000000E+00      0.0000000000E+00       1          
  kp_inst:0_i:135_j:75   log                    factor                1.0000000000E+00      1.0000000000E-02      1.0000000000E+02       kp_inst:0             1.0000000000E+00      0.0000000000E+00       1          
  kp_inst:0_i:135_j:85   log                    factor                1.0000000000E+00      1.0000000000E-02      1.0000000000E+02       kp_inst:0             1.0000000000E+00      0.0000000000E+00       1          
  kp_inst:0_i:135_j:95   log                    factor                1.0000000000E+00      1.0000000000E-02      1.0000000000E+02       kp_inst:0             1.0000000000E+00      0.0000000000E+00       1          
 kp_inst:0_i:135_j:105   log                    factor                1.0000000000E+00      1.0000000000E-02      1.0000000000E+02       kp_inst:0             1.0000000000E+00      0.0000000000E+00       1          
 kp_inst:0_i:135_j:115   log                    factor                1.0000000000E+00      1.0000000000E-02      1.0000000000E+02       kp_inst:0             1.0000000000E+00      0.0000000000E+00       1          
 kp_inst:0_i:135_j:125   log                    factor                1.0000000000E+00      1.0000000000E-02      1.0000000000E+02       kp_inst:0             1.0000000000E+00      0.0000000000E+00       1          
  kp_inst:0_i:145_j:55   log                    factor                1.0000000000E+00      1.0000000000E-02      1.0000000000E+02       kp_inst:0             1.0000000000E+00      0.0000000000E+00       1          
  kp_inst:0_i:145_j:65   log                    factor                1.0000000000E+00      1.0000000000E-02      1.0000000000E+02       kp_inst:0             1.0000000000E+00      0.0000000000E+00       1          
  kp_inst:0_i:145_j:75   log                    factor                1.0000000000E+00      1.0000000000E-02      1.0000000000E+02       kp_inst:0             1.0000000000E+00      0.0000000000E+00       1          
  kp_inst:0_i:145_j:85   log                    factor                1.0000000000E+00      1.0000000000E-02      1.0000000000E+02       kp_inst:0             1.0000000000E+00      0.0000000000E+00       1          
  kp_inst:0_i:145_j:95   log                    factor                1.0000000000E+00      1.0000000000E-02      1.0000000000E+02       kp_inst:0             1.0000000000E+00      0.0000000000E+00       1          
 kp_inst:0_i:145_j:105   log                    factor                1.0000000000E+00      1.0000000000E-02      1.0000000000E+02       kp_inst:0             1.0000000000E+00      0.0000000000E+00       1          
 kp_inst:0_i:145_j:115   log                    factor                1.0000000000E+00      1.0000000000E-02      1.0000000000E+02       kp_inst:0             1.0000000000E+00      0.0000000000E+00       1          
 kp_inst:0_i:145_j:125   log                    factor                1.0000000000E+00      1.0000000000E-02      1.0000000000E+02       kp_inst:0             1.0000000000E+00      0.0000000000E+00       1          
  kp_inst:0_i:155_j:65   log                    factor                1.0000000000E+00      1.0000000000E-02      1.0000000000E+02       kp_inst:0             1.0000000000E+00      0.0000000000E+00       1          
  kp_inst:0_i:155_j:75   log                    factor                1.0000000000E+00      1.0000000000E-02      1.0000000000E+02       kp_inst:0             1.0000000000E+00      0.0000000000E+00       1          
  kp_inst:0_i:155_j:85   log                    factor                1.0000000000E+00      1.0000000000E-02      1.0000000000E+02       kp_inst:0             1.0000000000E+00      0.0000000000E+00       1          
  kp_inst:0_i:155_j:95   log                    factor                1.0000000000E+00      1.0000000000E-02      1.0000000000E+02       kp_inst:0             1.0000000000E+00      0.0000000000E+00       1          
 kp_inst:0_i:155_j:105   log                    factor                1.0000000000E+00      1.0000000000E-02      1.0000000000E+02       kp_inst:0             1.0000000000E+00      0.0000000000E+00       1          
 kp_inst:0_i:155_j:115   log                    factor                1.0000000000E+00      1.0000000000E-02      1.0000000000E+02       kp_inst:0             1.0000000000E+00      0.0000000000E+00       1          
 kp_inst:0_i:155_j:125   log                    factor                1.0000000000E+00      1.0000000000E-02      1.0000000000E+02       kp_inst:0             1.0000000000E+00      0.0000000000E+00       1          
  kp_inst:0_i:165_j:55   log                    factor                1.0000000000E+00      1.0000000000E-02      1.0000000000E+02       kp_inst:0             1.0000000000E+00      0.0000000000E+00       1          
  kp_inst:0_i:165_j:65   log                    factor                1.0000000000E+00      1.0000000000E-02      1.0000000000E+02       kp_inst:0             1.0000000000E+00      0.0000000000E+00       1          
  kp_inst:0_i:165_j:95   log                    factor                1.0000000000E+00      1.0000000000E-02      1.0000000000E+02       kp_inst:0             1.0000000000E+00      0.0000000000E+00       1          
* observation groups
obgnme               
* observation data
  hds_usecol:0_100_51_time:1.0  6.9790000000E+01      1.0000000000E+00       obgnme               
  hds_usecol:0_100_75_time:1.0  3.6060000000E+01      1.0000000000E+00       obgnme               
  hds_usecol:0_101_53_time:1.0  6.6520000000E+01      1.0000000000E+00       obgnme               
  hds_usecol:0_101_59_time:1.0  5.9790000000E+01      1.0000000000E+00       obgnme               
  hds_usecol:0_102_22_time:1.0  1.1643000000E+02      1.0000000000E+00       obgnme               
  hds_usecol:0_102_24_time:1.0  1.1438000000E+02      1.0000000000E+00       obgnme               
  hds_usecol:0_102_28_time:1.0  1.0845000000E+02      1.0000000000E+00       obgnme               
  hds_usecol:0_102_57_time:1.0  6.0340000000E+01      1.0000000000E+00       obgnme               
  hds_usecol:0_103_32_time:1.0  1.0293000000E+02      1.0000000000E+00       obgnme               
  hds_usecol:0_104_45_time:1.0  7.7430000000E+01      1.0000000000E+00       obgnme               
  hds_usecol:0_104_74_time:1.0  4.8990000000E+01      1.0000000000E+00       obgnme               
  hds_usecol:0_106_17_time:1.0  1.2776000000E+02      1.0000000000E+00       obgnme               
  hds_usecol:0_106_58_time:1.0  7.3520000000E+01      1.0000000000E+00       obgnme               
  hds_usecol:0_106_71_time:1.0  5.5240000000E+01      1.0000000000E+00       obgnme               
  hds_usecol:0_108_24_time:1.0  1.2148000000E+02      1.0000000000E+00       obgnme               
  hds_usecol:0_108_42_time:1.0  9.3210000000E+01      1.0000000000E+00       obgnme               
  hds_usecol:0_108_43_time:1.0  9.5410000000E+01      1.0000000000E+00       obgnme               
  hds_usecol:0_109_12_time:1.0  1.4239000000E+02      1.0000000000E+00       obgnme               
  hds_usecol:0_110_22_time:1.0  1.2846000000E+02      1.0000000000E+00       obgnme               
  hds_usecol:0_111_42_time:1.0  9.9200000000E+01      1.0000000000E+00       obgnme               
  hds_usecol:0_112_16_time:1.0  1.4362000000E+02      1.0000000000E+00       obgnme               
  hds_usecol:0_112_61_time:1.0  7.1000000000E+01      1.0000000000E+00       obgnme               
 hds_usecol:0_113_102_time:1.0  9.2700000000E+00      1.0000000000E+00       obgnme               
 hds_usecol:0_114_114_time:1.0  3.7200000000E+00      1.0000000000E+00       obgnme               
  hds_usecol:0_114_13_time:1.0  1.5352000000E+02      1.0000000000E+00       obgnme               
   hds_usecol:0_114_6_time:1.0  1.7069000000E+02      1.0000000000E+00       obgnme               
  hds_usecol:0_115_66_time:1.0  6.8310000000E+01      1.0000000000E+00       obgnme               
 hds_usecol:0_116_100_time:1.0  1.5660000000E+01      1.0000000000E+00       obgnme               
   hds_usecol:0_116_1_time:1.0  1.7961000000E+02      1.0000000000E+00       obgnme               
  hds_usecol:0_116_59_time:1.0  7.6130000000E+01      1.0000000000E+00       obgnme               
  hds_usecol:0_116_60_time:1.0  7.5280000000E+01      1.0000000000E+00       obgnme               
  hds_usecol:0_119_43_time:1.0  1.0107000000E+02      1.0000000000E+00       obgnme               
 hds_usecol:0_120_112_time:1.0  6.4700000000E+00      1.0000000000E+00       obgnme               
 hds_usecol:0_120_123_time:1.0  2.0100000000E+00      1.0000000000E+00       obgnme               
 hds_usecol:0_121_104_time:1.0  1.1580000000E+01      1.0000000000E+00       obgnme               
  hds_usecol:0_121_82_time:1.0  4.1760000000E+01      1.0000000000E+00       obgnme               
  hds_usecol:0_122_94_time:1.0  1.2340000000E+01      1.0000000000E+00       obgnme               
  hds_usecol:0_125_75_time:1.0  5.5560000000E+01      1.0000000000E+00       obgnme               
 hds_usecol:0_129_100_time:1.0  1.0710000000E+01      1.0000000000E+00       obgnme               
  hds_usecol:0_129_69_time:1.0  7.0490000000E+01      1.0000000000E+00       obgnme               
  hds_usecol:0_129_86_time:1.0  2.6750000000E+01      1.0000000000E+00       obgnme               
  hds_usecol:0_131_65_time:1.0  8.0670000000E+01      1.0000000000E+00       obgnme               
  hds_usecol:0_132_50_time:1.0  1.0487000000E+02      1.0000000000E+00       obgnme               
  hds_usecol:0_133_56_time:1.0  1.0365000000E+02      1.0000000000E+00       obgnme               
 hds_usecol:0_135_119_time:1.0  3.4600000000E+00      1.0000000000E+00       obgnme               
  hds_usecol:0_136_70_time:1.0  7.9970000000E+01      1.0000000000E+00       obgnme               
  hds_usecol:0_137_73_time:1.0  8.6120000000E+01      1.0000000000E+00       obgnme               
 hds_usecol:0_138_116_time:1.0  5.4300000000E+00      1.0000000000E+00       obgnme               
 hds_usecol:0_139_122_time:1.0  2.4800000000E+00      1.0000000000E+00       obgnme               
  hds_usecol:0_140_74_time:1.0  6.4820000000E+01      1.0000000000E+00       obgnme               
  hds_usecol:0_140_89_time:1.0  2.8150000000E+01      1.0000000000E+00       obgnme               
 hds_usecol:0_141_114_time:1.0  8.4800000000E+00      1.0000000000E+00       obgnme               
 hds_usecol:0_142_116_time:1.0  5.6600000000E+00      1.0000000000E+00       obgnme               
 hds_usecol:0_143_107_time:1.0  1.6870000000E+01      1.0000000000E+00       obgnme               
 hds_usecol:0_146_106_time:1.0  1.9600000000E+01      1.0000000000E+00       obgnme               
  hds_usecol:0_147_91_time:1.0  3.4430000000E+01      1.0000000000E+00       obgnme               
  hds_usecol:0_147_97_time:1.0  2.4140000000E+01      1.0000000000E+00       obgnme               
  hds_usecol:0_148_98_time:1.0  2.4660000000E+01      1.0000000000E+00       obgnme               
 hds_usecol:0_149_129_time:1.0  7.9000000000E-01      1.0000000000E+00       obgnme               
  hds_usecol:0_152_94_time:1.0  3.9040000000E+01      1.0000000000E+00       obgnme               
 hds_usecol:0_153_111_time:1.0  3.1570000000E+01      1.0000000000E+00       obgnme               
 hds_usecol:0_153_113_time:1.0  3.1870000000E+01      1.0000000000E+00       obgnme               
 hds_usecol:0_153_124_time:1.0  5.9000000000E+00      1.0000000000E+00       obgnme               
 hds_usecol:0_154_126_time:1.0  4.9000000000E+00      1.0000000000E+00       obgnme               
 hds_usecol:0_155_123_time:1.0  8.5000000000E+00      1.0000000000E+00       obgnme               
 hds_usecol:0_155_131_time:1.0  3.8000000000E-01      1.0000000000E+00       obgnme               
  hds_usecol:0_156_96_time:1.0  4.9800000000E+01      1.0000000000E+00       obgnme               
  hds_usecol:0_156_99_time:1.0  4.4480000000E+01      1.0000000000E+00       obgnme               
 hds_usecol:0_165_101_time:1.0  9.6310000000E+01      1.0000000000E+00       obgnme               
  hds_usecol:0_165_59_time:1.0  1.0951000000E+02      1.0000000000E+00       obgnme               
  hds_usecol:0_167_59_time:1.0  1.1100000000E+02      1.0000000000E+00       obgnme               
  hds_usecol:0_167_66_time:1.0  7.5520000000E+01      1.0000000000E+00       obgnme               
   hds_usecol:0_50_94_time:1.0  9.8500000000E+00      1.0000000000E+00       obgnme               
  hds_usecol:0_56_126_time:1.0  4.6000000000E-01      1.0000000000E+00       obgnme               
   hds_usecol:0_57_83_time:1.0  2.7280000000E+01      1.0000000000E+00       obgnme               
  hds_usecol:0_62_126_time:1.0  1.3200000000E+00      1.0000000000E+00       obgnme               
  hds_usecol:0_63_117_time:1.0  6.8000000000E-01      1.0000000000E+00       obgnme               
   hds_usecol:0_63_94_time:1.0  5.9200000000E+00      1.0000000000E+00       obgnme               
   hds_usecol:0_63_99_time:1.0  6.4800000000E+00      1.0000000000E+00       obgnme               
  hds_usecol:0_64_104_time:1.0  1.7800000000E+00      1.0000000000E+00       obgnme               
  hds_usecol:0_64_111_time:1.0  4.6000000000E-01      1.0000000000E+00       obgnme               
   hds_usecol:0_64_92_time:1.0  1.2220000000E+01      1.0000000000E+00       obgnme               
   hds_usecol:0_64_96_time:1.0  5.4500000000E+00      1.0000000000E+00       obgnme               