BEGIN MODFLOW_GRID basegrid
  ROTATION_ANGLE = 0.0
  X_OFFSET = 660000.0
  Y_OFFSET = 6150000.0
  NLAY = 1
  NROW = 55
  NCOL = 50
  DELR = CONSTANT 1000.0
  DELC = CONSTANT 1000.0
  TOP = CONSTANT 50.0
  BOTTOM LAYER 1 = CONSTANT -50.0
END MODFLOW_GRID


BEGIN QUADTREE_BUILDER quadtreebuilder
  MODFLOW_GRID = basegrid
  REFINEMENT_FEATURES LAYER 1 = rf0 rf1 rf2 rf3 rf4 rf5 rf6 
  SMOOTHING = full
  TOP LAYER 1 = REPLICATE basename
  BOTTOM LAYER 1 = REPLICATE basename
  GRID_DEFINITION_FILE = quadtreegrid.dfn
END QUADTREE_BUILDER




BEGIN REFINEMENT_FEATURES rf0
  SHAPEFILE = rf0
  FEATURE_TYPE = line
  REFINEMENT_LEVEL = 2
END REFINEMENT_FEATURES


BEGIN REFINEMENT_FEATURES rf1
  SHAPEFILE = rf1
  FEATURE_TYPE = line
  REFINEMENT_LEVEL = 2
END REFINEMENT_FEATURES


BEGIN REFINEMENT_FEATURES rf2
  SHAPEFILE = rf2
  FEATURE_TYPE = line
  REFINEMENT_LEVEL = 2
END REFINEMENT_FEATURES


BEGIN REFINEMENT_FEATURES rf3
  SHAPEFILE = rf3
  FEATURE_TYPE = line
  REFINEMENT_LEVEL = 2
END REFINEMENT_FEATURES


BEGIN REFINEMENT_FEATURES rf4
  SHAPEFILE = rf4
  FEATURE_TYPE = line
  REFINEMENT_LEVEL = 2
END REFINEMENT_FEATURES


BEGIN REFINEMENT_FEATURES rf5
  SHAPEFILE = rf5
  FEATURE_TYPE = line
  REFINEMENT_LEVEL = 2
END REFINEMENT_FEATURES


BEGIN REFINEMENT_FEATURES rf6
  SHAPEFILE = rf6
  FEATURE_TYPE = line
  REFINEMENT_LEVEL = 2
END REFINEMENT_FEATURES




