BEGIN MODFLOW_GRID basegrid
  ROTATION_ANGLE = 0.0
  X_OFFSET = 660000.0
  Y_OFFSET = 6150000.0
  NLAY = 1
  NROW = 100
  NCOL = 100
  DELR = CONSTANT 500.0
  DELC = CONSTANT 500.0
  TOP = CONSTANT 1.0
  BOTTOM LAYER 1 = CONSTANT 0.0
END MODFLOW_GRID


BEGIN QUADTREE_BUILDER quadtreebuilder
  MODFLOW_GRID = basegrid
  REFINEMENT_FEATURES LAYER 1 = rf0 
  SMOOTHING = full
  TOP LAYER 1 = REPLICATE basename
  BOTTOM LAYER 1 = REPLICATE basename
  GRID_DEFINITION_FILE = quadtreegrid.dfn
END QUADTREE_BUILDER




BEGIN REFINEMENT_FEATURES rf0
  SHAPEFILE = ../../../data/Fleuves/Agly_ludo
  FEATURE_TYPE = line
  REFINEMENT_LEVEL = 2
END REFINEMENT_FEATURES




