BEGIN options
  SAVE_FLOWS
END options

BEGIN dimensions
  MAXBOUND  334
END dimensions

BEGIN period  1
  1 9946      29.90203207
  1 9949      28.59687110
  1 9948      26.89841024
  1 9952      23.93741711
  1 9953      23.81329901
  1 9957      23.68981938
  1 9958      23.62249869
  1 9956      23.55984206
  1 9961      23.44059794
  1 9960      23.31745606
  1 9968      23.23879394
  1 9966      23.17497866
  1 10151      23.08144114
  1 9969      22.96011515
  1 10150      22.83556395
  1 9972      22.76144418
  1 10153      22.68103034
  1 10161      22.56653290
  1 10158      22.49136131
  1 10162      22.43534181
  1 10351      22.32945476
  1 10164      22.20099849
  1 10356      22.10482173
  1 10353      22.03685283
  1 10359      21.92743312
  1 10362      21.78574302
  1 10567      21.65813218
  1 10572      21.56873599
  1 10569      21.47650346
  1 10857      21.34033015
  1 10577      21.22754013
  1 10856      21.17728031
  1 10579      21.09796013
  1 10859      21.00510643
  1 10862      20.91031620
  1 10866      20.80759409
  1 10863      20.74550330
  1 10876      20.65104927
  1 10877      20.56024417
  1 10875      20.47052107
  1 10871      20.37666154
  1 10872      20.28280202
  1 10884      20.15690822
  1 10887      20.04741299
  1 10885      19.94516300
  1 10886      19.81835490
  1 10883      19.73710170
  1 10600      19.65362480
  1 10592      19.55522291
  1 10599      19.45591685
  1 10598      19.35991650
  1 10602      19.31998791
  1 10597      19.23915092
  1 10596      19.12547204
  1 10612      19.03946864
  1 10608      18.94087531
  1 10609      18.81719185
  1 10616      18.69400176
  1 10610      18.60725706
  1 10611      18.51936242
  1 10617      18.39340640
  1 10620      18.31623408
  1 10626      18.27517564
  1 10622      18.18862827
  1 10623      18.08079356
  1 10633      18.01173482
  1 10631      17.92459352
  1 10902      17.79125383
  1 10634      17.67415122
  1 10907      17.54771552
  1 10905      17.46310939
  1 10908      17.41556689
  1 10911      17.34801214
  1 10919      17.25555133
  1 10923      17.12874653
  1 10920      17.00447245
  1 10924      16.89386014
  1 10918      16.82635147
  1 10931      16.75905721
  1 10929      16.63509096
  1 10928      16.50229905
  1 10930      16.42745990
  1 10646      16.34360487
  1 10645      16.25290474
  1 10651      16.16584717
  1 10652      16.03920578
  1 10655      15.91356157
  1 10656      15.78943449
  1 10661      15.66563407
  1 10662      15.56098077
  1 10952      15.45581837
  1 10942      15.37431706
  1 10951      15.29396888
  1 10945      15.17125225
  1 10946      15.04853563
  1 10963      14.93203070
  1 10955      14.81368361
  1 10961      14.74315350
  1 10956      14.67262338
  1 10964      14.54782839
  1 10968      14.42455625
  1 10967      14.30127726
  1 10973      14.17832721
  1 10977      14.05579769
  1 10974      13.93344092
  1 10984      13.81105487
  1 10978      13.68866009
  1 10983      13.56629076
  1 10988      13.44345163
  1 10987      13.32058363
  1 10994      13.19152678
  1 10993      12.94488610
  1 11009      12.82906191
  1 10997      12.71367850
  1 11008      12.63519148
  1 11000      12.60326106
  1 11006      12.55616881
  1 11001      12.45440346
  1 11239      12.34845762
  1 11012      12.24964975
  1 11238      12.13684368
  1 11232      12.07818647
  1 11233      12.01952926
  1 11248      11.89417199
  1 11241      11.80527454
  1 11245      11.77963287
  1 11244      11.70737645
  1 11255      11.60200657
  1 11250      11.54024932
  1 11489      11.46135909
  1 11484      11.35133126
  1 11486      11.24166258
  1 11708      11.13134430
  1 11491      11.02037662
  1 11713      10.89859477
  1 11710      10.77679984
  1 11942      10.65597472
  1 11715      10.58206507
  1 11939      10.55938475
  1 11716      10.47938005
  1 11951      10.38329882
  1 11943      10.33199840
  1 11950      10.24963583
  1 11945      10.14828552
  1 11958      10.05285065
  1 11954       9.97127231
  1 11957       9.88958225
  1 11967       9.77867830
  1 11963       9.66828775
  1 11964       9.55844666
  1 11974       9.45984533
  1 11968       9.35987432
  1 11973       9.24729387
  1 11980       9.13349937
  1 11976       9.06053293
  1 11979       8.98591863
  1 12210       8.87192082
  1 11985       8.76218818
  1 12209       8.65241425
  1 11986       8.57465659
  1 12206       8.51976962
  1 12216       8.43286980
  1 12215       8.32333066
  1 12220       8.21098688
  1 12219       8.09799480
  1 12228       7.98867670
  1 12225       7.93107501
  1 12227       7.87263857
  1 12236       7.79409059
  1 12231       7.74977582
  1 12234       7.67409183
  1 12447       7.54593087
  1 12237       7.42546877
  1 12444       7.36963016
  1 12436       7.31992431
  1 12443       7.21800093
  1 12441       7.12939489
  1 12649       7.03917415
  1 12450       6.97606203
  1 12648       6.97054447
  1 12452       6.89135036
  1 12657       6.75744283
  1 12654       6.65253419
  1 12656       6.59089057
  1 12669       6.51752986
  1 12660       6.40320779
  1 12664       6.31221115
  1 12661       6.25509453
  1 12681       6.17550111
  1 12670       6.06156930
  1 12676       5.94641929
  1 12673       5.86218520
  1 12675       5.80461020
  1 12903       5.71833965
  1 12682       5.60761349
  1 12902       5.51247126
  1 12685       5.45709982
  1 12701       5.38675454
  1 12908       5.28646520
  1 12696       5.18558542
  1 12691       5.12046022
  1 12695       4.97618591
  1 12692       4.92855772
  1 12706       4.88127908
  1 12702       4.83435262
  1 12705       4.78742879
  1 12716       4.74670901
  1 12711       4.70598547
  1 12715       4.65905414
  1 12712       4.61212280
  1 12725       4.55979810
  1 12714       4.52055078
  1 12718       4.49122802
  1 12719       4.46979355
  1 12720       4.44330779
  1 12469       4.39325504
  1 12721       4.35213277
  1 12468       4.32174018
  1 12478       4.27921380
  1 12467       4.25048685
  1 12473       4.24132713
  1 12479       4.21458455
  1 12476       4.16782464
  1 12260       4.12797123
  1 12477       4.10756030
  1 12483       4.08243590
  1 12475       4.04405771
  1 12270       3.99564199
  1 12261       3.94125439
  1 12267       3.89938441
  1 12264       3.88033822
  1 12269       3.86276493
  1 12262       3.82696643
  1 12268       3.77672029
  1 12263       3.72680013
  1 12257       3.69937778
  1 12020       3.66771977
  1 12271       3.63535994
  1 12019       3.62605422
  1 12015       3.60125160
  1 12025       3.55705808
  1 12023       3.50723820
  1 12022       3.45471245
  1 12024       3.42796282
  1 11751       3.41310302
  1 12031       3.38045507
  1 11753       3.35033019
  1 12029       3.33109436
  1 11748       3.29658751
  1 12030       3.24331901
  1 11747       3.20511297
  1 12033       3.17847873
  1 11776       3.13891493
  1 11752       3.09035505
  1 11773       3.04681493
  1 11755       3.00327481
  1 11775       2.97463932
  1 11756       2.94600384
  1 11774       2.89788676
  1 11767       2.85496650
  1 11766       2.81204625
  1 11761       2.78279086
  1 11765       2.75353548
  1 11762       2.70541841
  1 11537       2.65667559
  1 11777       2.60741277
  1 11529       2.57935779
  1 11782       2.55977751
  1 11531       2.52257154
  1 11526       2.49299473
  1 11530       2.45994149
  1 11527       2.41078440
  1 11538       2.36132837
  1 11549       2.31168908
  1 11541       2.26656799
  1 11546       2.24090303
  1 11535       2.23119499
  1 11548       2.20733667
  1 11536       2.16311906
  1 11547       2.11359577
  1 11294       2.06379032
  1 11550       2.01395449
  1 11293       1.98243287
  1 11555       1.95764085
  1 11302       1.91847764
  1 11297       1.87125181
  1 11308       1.84147607
  1 11298       1.83526321
  1 11307       1.80657602
  1 11296       1.75688813
  1 11317       1.70983332
  1 11305       1.66188570
  1 11316       1.61297436
  1 11306       1.56406302
  1 11313       1.51515169
  1 11314       1.47810595
  1 11312       1.45365028
  1 11063       1.41814799
  1 11322       1.37103534
  1 11062       1.33947346
  1 11323       1.30791159
  1 11336       1.26904558
  1 11326       1.23017957
  1 11333       1.18322765
  1 11327       1.13627573
  1 11332       1.08932380
  1 11071       1.03859777
  1 11070       0.99535301
  1 11072       0.96549516
  1 11073       0.92993121
  1 11066       0.88479324
  1 11067       0.85061833
  1 11068       0.82095959
  1 10730       0.79056423
  1 11077       0.77530452
  1 10729       0.75576438
  1 10731       0.71287055
  1 10725       0.65769786
  1 10724       0.60541132
  1 10727       0.57131894
  1 10429       0.54622639
  1 10430       0.52918034
  1 10431       0.50115189
  1 10434       0.45904414
  1 10440       0.42700745
  1 10437       0.38557090
  1 10435       0.33403974
  1 10436       0.28460210
  1 10438       0.25834311
  1 10229       0.23127796
  1 10445       0.19222366
  1 10226       0.15282125
  1 10225       0.11922491
  1 10230       0.10498075
END period  1

