BEGIN options
  SAVE_FLOWS
END options

BEGIN dimensions
  MAXBOUND  97
END dimensions

BEGIN period  1
  1 1167      27.37948148
  1 1168      23.79409791
  1 1171      23.38373567
  1 1172      22.90761439
  1 1179      22.39071939
  1 1177      22.12823321
  1 1182      21.90866707
  1 1185      21.48195222
  1 1183      21.23365852
  1 1297      21.06060725
  1 1300      20.70494973
  1 1301      20.28895237
  1 1306      19.92042658
  1 1191      19.68259917
  1 1192      19.36085625
  1 1195      18.91299955
  1 1196      18.49527316
  1 1201      18.04612575
  1 1313      17.74372916
  1 1314      17.44328319
  1 1317      16.98952045
  1 1318      16.62248997
  1 1206      16.38490566
  1 1211      16.08719096
  1 1212      15.73477882
  1 1327      15.38621009
  1 1324      15.12288293
  1 1328      14.85586115
  1 1333      14.44466512
  1 1334      14.03889639
  1 1337      13.63438278
  1 1338      12.81695912
  1 1345      12.58876869
  1 1343      12.39343541
  1 1349      12.08825279
  1 1346      11.75366708
  1 1352      11.39285446
  1 1354      11.03756040
  1 1460      10.78317087
  1 1461      10.55840984
  1 1468      10.23337810
  1 1463       9.97736534
  1 1469       9.72907198
  1 1472       9.37663861
  1 1473       9.01812825
  1 1481       8.67121309
  1 1478       8.49893491
  1 1482       8.31920215
  1 1485       7.94290619
  1 1488       7.54858165
  1 1487       7.32848461
  1 1593       7.10385042
  1 1588       6.83294680
  1 1596       6.65607774
  1 1594       6.47638225
  1 1599       6.22018586
  1 1600       5.86576473
  1 1606       5.51976815
  1 1605       4.92038069
  1 1609       4.76230961
  1 1610       4.60364644
  1 1613       4.42548066
  1 1608       4.30811346
  1 1502       4.19547214
  1 1501       4.09755763
  1 1505       4.04667730
  1 1504       3.90903370
  1 1503       3.77037099
  1 1510       3.63412239
  1 1515       3.53050057
  1 1509       3.44106667
  1 1511       3.27769926
  1 1508       3.18895080
  1 1376       3.11738241
  1 1512       2.96560593
  1 1521       2.87580294
  1 1520       2.78599995
  1 1380       2.62313742
  1 1379       2.45853631
  1 1388       2.33935099
  1 1387       2.21952264
  1 1386       2.09089532
  1 1390       1.96016212
  1 1385       1.80205495
  1 1391       1.71720327
  1 1397       1.62604757
  1 1396       1.46479601
  1 1401       1.30438194
  1 1400       1.14724327
  1 1406       1.04019430
  1 1404       0.93755564
  1 1405       0.83001767
  1 1245       0.69845518
  1 1246       0.50030664
  1 1243       0.39405891
  1 1241       0.30362879
  1 1240       0.20502408
END period  1

