BEGIN options
  SAVE_FLOWS
END options

BEGIN dimensions
  MAXBOUND  97
END dimensions

BEGIN period  1
  1 331      28.00000000
  1 332      27.71922442
  1 335      27.15963956
  1 336      26.51038326
  1 343      25.80552644
  1 341      25.44759074
  1 346      25.14818237
  1 349      24.56629849
  1 347      24.22771617
  1 424      23.99173716
  1 427      23.50674963
  1 428      22.93948050
  1 433      22.43694533
  1 355      22.11263523
  1 356      21.67389488
  1 359      21.06318121
  1 360      20.49355431
  1 365      19.88108057
  1 440      19.46872158
  1 441      19.05902253
  1 444      18.44025515
  1 445      17.93975905
  1 370      17.61578045
  1 375      17.20980586
  1 376      16.72924384
  1 454      16.25392285
  1 451      15.89484036
  1 455      15.53071975
  1 460      14.96999790
  1 461      14.41667689
  1 464      13.86506742
  1 465      12.81695912
  1 472      12.58876869
  1 470      12.39343541
  1 476      12.08825279
  1 473      11.75366708
  1 479      11.39285446
  1 481      11.03756040
  1 552      10.78317087
  1 553      10.55840984
  1 560      10.23337810
  1 555       9.97736534
  1 561       9.72907198
  1 564       9.37663861
  1 565       9.01812825
  1 573       8.67121309
  1 570       8.49893491
  1 574       8.31920215
  1 577       7.94290619
  1 580       7.54858165
  1 579       7.32848461
  1 652       7.10385042
  1 647       6.83294680
  1 655       6.65607774
  1 653       6.47638225
  1 658       6.22018586
  1 659       5.86576473
  1 665       5.51976815
  1 664       4.92038069
  1 668       4.76230961
  1 669       4.60364644
  1 672       4.42548066
  1 667       4.30811346
  1 594       4.19547214
  1 593       4.09755763
  1 597       4.04667730
  1 596       3.90903370
  1 595       3.77037099
  1 602       3.63412239
  1 607       3.53050057
  1 601       3.44106667
  1 603       3.27769926
  1 600       3.18895080
  1 503       3.11738241
  1 604       2.96560593
  1 613       2.87580294
  1 612       2.78599995
  1 507       2.62313742
  1 506       2.45853631
  1 515       2.33935099
  1 514       2.21952264
  1 513       2.09089532
  1 517       1.96016212
  1 512       1.80205495
  1 518       1.71720327
  1 524       1.62604757
  1 523       1.46479601
  1 528       1.30438194
  1 527       1.14724327
  1 533       1.04019430
  1 531       0.93755564
  1 532       0.83001767
  1 409       0.69845518
  1 410       0.50030664
  1 407       0.39405891
  1 405       0.30362879
  1 404       0.20502408
END period  1

