BEGIN options
  SAVE_FLOWS
END options

BEGIN dimensions
  MAXBOUND  199
END dimensions

BEGIN period  1
  1 617      29.84516721
  1 620      29.51900114
  1 621      29.17479203
  1 626      28.83245130
  1 627      28.49065135
  1 630      28.11835288
  1 633      27.72237660
  1 631      27.46819738
  1 641      27.18263954
  1 638      26.92640699
  1 643      26.77786155
  1 702      26.45605551
  1 644      26.19108778
  1 704      25.99211062
  1 710      25.67643905
  1 707      25.45693670
  1 712      25.22141851
  1 822      24.79510581
  1 821      24.55036709
  1 829      24.36021218
  1 824      24.17944681
  1 833      24.00478249
  1 830      23.66567575
  1 832      23.39468565
  1 834      23.21451404
  1 838      23.06202565
  1 837      22.79617645
  1 723      22.47284731
  1 726      22.22564900
  1 724      21.99931443
  1 725      21.70864881
  1 731      21.35713649
  1 730      21.01457809
  1 734      20.67298229
  1 735      20.31721945
  1 740      19.95746568
  1 743      19.59946903
  1 742      19.37912723
  1 849      19.23160251
  1 852      19.00816651
  1 854      18.79445586
  1 855      18.51562989
  1 860      18.16537623
  1 861      17.84663099
  1 863      17.65994352
  1 859      17.57186783
  1 862      17.31712188
  1 751      16.96002873
  1 756      16.63510105
  1 757      16.28774731
  1 760      15.94389511
  1 761      15.70211390
  1 876      15.45999714
  1 870      15.18929662
  1 875      14.92050803
  1 880      14.57849271
  1 879      14.23138733
  1 885      13.88661310
  1 886      13.54631381
  1 890      13.20716354
  1 889      12.86913134
  1 895      12.53107087
  1 896      12.19286979
  1 900      11.87770585
  1 899      11.33630119
  1 911      11.25460203
  1 902      11.21268017
  1 908      11.16679696
  1 907      11.07365758
  1 920      10.99838834
  1 914      10.92860971
  1 915      10.81723553
  1 923      10.73096104
  1 922      10.64892699
  1 1007      10.53851614
  1 1012      10.42566229
  1 1009      10.31834621
  1 1014      10.21085765
  1 1108      10.10698276
  1 1113       9.99105844
  1 1111       9.91437341
  1 1122       9.84581317
  1 1114       9.77493442
  1 1117       9.71526882
  1 1128       9.63237585
  1 1123       9.54224578
  1 1126       9.47070906
  1 1127       9.39961819
  1 1135       9.28954055
  1 1132       9.20182828
  1 1134       9.14698320
  1 1138       9.06583646
  1 1238       8.95497179
  1 1139       8.84813041
  1 1237       8.74384927
  1 1144       8.69037143
  1 1241       8.63418504
  1 1242       8.52539533
  1 1247       8.41912761
  1 1250       8.30603535
  1 1249       8.23244828
  1 1259       8.18732393
  1 1253       8.13715774
  1 1258       8.08515405
  1 1256       7.99882295
  1 1344       7.91488544
  1 1339       7.83658047
  1 1347       7.73259785
  1 1346       7.64289671
  1 1354       7.55616537
  1 1350       7.45339968
  1 1353       7.39774944
  1 1362       7.38125563
  1 1359       7.31734115
  1 1360       7.21324826
  1 1366       7.11131201
  1 1365       7.00342197
  1 1373       6.89590282
  1 1371       6.78841936
  1 1370       6.71530320
  1 1372       6.66138882
  1 1382       6.57355400
  1 1374       6.46731459
  1 1386       6.35761508
  1 1383       6.24790708
  1 1387       6.14273315
  1 1392       6.05153896
  1 1381       5.98610225
  1 1391       5.90384323
  1 1390       5.81032900
  1 1278       5.71193003
  1 1275       5.64473087
  1 1279       5.60211547
  1 1288       5.50328516
  1 1277       5.41158606
  1 1285       5.32068103
  1 1282       5.25705587
  1 1284       5.23177970
  1 1283       5.14627838
  1 1286       5.04552987
  1 1170       4.94684425
  1 1293       4.86706908
  1 1169       4.79597469
  1 1167       4.70382957
  1 1171       4.65380314
  1 1168       4.58402201
  1 1174       4.51549244
  1 1164       4.50721397
  1 1176       4.45528990
  1 1175       4.34337605
  1 1040       4.22824331
  1 1177       4.11894155
  1 1039       4.02269107
  1 1178       3.92644060
  1 1187       3.85928736
  1 1183       3.79213412
  1 1184       3.68319823
  1 1048       3.57274523
  1 1045       3.46111516
  1 1047       3.34982512
  1 1046       3.24778382
  1 1044       3.19213888
  1 1059       3.13276683
  1 1058       3.03488184
  1 1053       2.98114015
  1 1057       2.91910030
  1 1054       2.80698079
  1 1065       2.69203629
  1 1056       2.62481205
  1 1064       2.56034437
  1 949       2.44844743
  1 1068       2.37687613
  1 948       2.31772963
  1 956       2.21988424
  1 954       2.11001612
  1 953       2.00531133
  1 955       1.94994447
  1 967       1.89054866
  1 957       1.78403265
  1 966       1.67773477
  1 962       1.57143688
  1 963       1.46513900
  1 978       1.37331084
  1 973       1.27821258
  1 972       1.19641012
  1 974       1.12571215
  1 971       1.06187495
  1 804       0.97193312
  1 805       0.84224792
  1 806       0.78080605
  1 807       0.74202801
  1 801       0.69802613
  1 809       0.63457039
  1 808       0.53467970
  1 687       0.43086378
  1 684       0.35241190
  1 690       0.29631084
  1 688       0.20459160
  1 692       0.13151716
END period  1

