BEGIN options
  SAVE_FLOWS
END options

BEGIN dimensions
  MAXBOUND  58
END dimensions

BEGIN period  1
  1 3091     178.98111117
  1 3092     178.50056971
  1 3086     177.00976033
  1 3089     173.49925668
  1 3090     172.50304225
  1 3096     171.56804396
  1 3098     171.07151783
  1 3100     170.50428811
  1 3097     167.21612903
  1 3101     164.13766146
  1 2952     158.37770265
  1 2941     157.46229272
  1 2951     156.44963983
  1 2950     155.61514836
  1 2948     153.07680353
  1 2945     152.08654540
  1 2949     151.92749060
  1 2947     151.10159993
  1 2955     148.32535281
  1 2793     146.75076096
  1 2792     145.71584372
  1 2794     143.08892497
  1 2791     142.13665238
  1 2795     141.45541937
  1 2800     138.06111329
  1 2789     136.81221039
  1 2801     136.03853506
  1 2802     133.53502584
  1 2799     132.74914028
  1 2619     131.83806702
  1 2618     131.10380814
  1 2628     130.48090673
  1 2630     129.87704369
  1 2629     128.54504830
  1 2623     127.86114369
  1 2626     127.00652237
  1 2635     125.78445772
  1 2627     122.76258270
  1 2636     117.73255177
  1 2639     114.00000000
  1 2640     114.00000000
  1 2643     113.43206630
  1 2645     112.79271508
  1 2644     112.10570856
  1 2647     110.87753185
  1 2648     108.17487382
  1 2653     106.51485675
  1 2413     103.51239295
  1 2654     102.78157436
  1 2410     102.28795772
  1 2414     101.55230403
  1 2423     100.73980417
  1 2425     100.20913506
  1 2424      98.18814592
  1 2421      96.61594004
  1 2418      95.71163361
  1 2419      93.04374676
  1 2247      91.78504617
END period  1

