BEGIN options
  SAVE_FLOWS
END options

BEGIN dimensions
  MAXBOUND  193
END dimensions

BEGIN period  1
  1 22072     178.80972092
  1 22070     178.18180891
  1 21738     177.26872106
  1 21730     176.78870911
  1 21737     176.30832454
  1 21736     175.71294936
  1 21734     175.22519802
  1 21740     174.82643326
  1 21735     173.80189646
  1 21751     173.46886119
  1 21746     173.14308964
  1 21750     172.76140997
  1 21747     172.37973031
  1 21755     171.99730670
  1 21749     171.74957845
  1 21754     171.50181531
  1 21758     171.11884819
  1 21414     170.73104414
  1 21759     170.34276498
  1 21413     169.95911784
  1 21764     169.57547070
  1 21408     168.46035300
  1 21765     167.38105900
  1 21407     166.39686368
  1 21768     165.85721739
  1 21416     165.14435234
  1 21417     164.08977359
  1 21415     163.53517732
  1 21427     163.10287318
  1 21169     162.43049162
  1 21421     161.71554050
  1 21168     160.87096762
  1 21422     159.88130682
  1 21170     158.91596503
  1 21420     158.75440900
  1 21159     158.38000632
  1 21423     157.78298628
  1 21424     157.47959100
  1 20944     157.26349723
  1 21163     156.89199176
  1 20933     156.60193273
  1 21166     156.28878219
  1 21165     155.91162282
  1 21164     155.57119386
  1 20940     155.11535323
  1 20942     154.70270223
  1 20937     154.57891199
  1 20943     153.69305761
  1 20646     153.12124120
  1 20941     152.82351506
  1 20947     152.71204772
  1 20939     152.31957134
  1 20647     151.85938624
  1 20643     151.47555040
  1 20645     151.07392149
  1 20649     150.84829115
  1 20648     150.48768652
  1 20653     149.89334269
  1 20654     149.30263598
  1 20655     148.99524990
  1 20656     148.65843242
  1 20356     147.88572357
  1 20355     147.36871646
  1 20360     146.81536294
  1 20354     146.31336585
  1 20359     146.26837456
  1 20365     145.78476682
  1 20362     145.06850635
  1 20361     143.54187070
  1 20128     142.64149339
  1 20118     142.04135989
  1 20125     141.66230046
  1 20126     141.00262599
  1 20127     140.34679884
  1 19871     139.83586232
  1 20129     139.42191669
  1 20136     138.92908370
  1 20123     138.69800935
  1 20133     138.32109975
  1 20134     137.93221725
  1 20132     137.71546544
  1 19880     137.61412576
  1 19872     137.35325570
  1 19879     136.94925017
  1 19878     136.60919890
  1 19886     136.29621594
  1 19882     136.04801191
  1 19875     135.85556268
  1 19876     135.57671660
  1 19877     135.29469957
  1 19629     134.99744051
  1 19621     134.76385855
  1 19618     134.57997815
  1 19622     133.70696988
  1 19624     133.28581059
  1 19625     133.13021142
  1 19623     132.83718114
  1 19370     132.27555655
  1 19627     131.91898682
  1 19359     131.83315127
  1 19628     131.52876537
  1 19361     130.99598405
  1 19631     130.64564821
  1 19360     130.36659215
  1 19365     129.94411557
  1 19371     129.63998982
  1 19366     129.43355247
  1 19368     128.84845735
  1 19077     128.47040628
  1 19367     127.96347067
  1 19375     127.63309849
  1 19079     127.37019277
  1 19078     126.88552482
  1 19081     126.56234370
  1 19080     126.25448708
  1 19103     125.73945991
  1 19088     125.23401288
  1 19102     124.74040773
  1 19089     123.72290140
  1 19099     123.16870421
  1 19092     122.63656684
  1 19098     122.10442947
  1 19086     121.80527124
  1 19087     121.50611301
  1 19106     121.03686206
  1 19108     120.74674307
  1 19111     120.37395905
  1 19107     119.82435624
  1 19110     118.16691724
  1 19120     116.50077836
  1 19116     114.00000000
  1 19117     114.00000000
  1 19121     114.00000000
  1 19131     114.00000000
  1 19126     114.00000000
  1 19130     114.00000000
  1 19127     114.00000000
  1 18742     113.80963367
  1 19136     113.59398421
  1 18743     113.36206835
  1 18757     112.94936485
  1 18746     112.53819305
  1 18756     112.12799096
  1 18747     111.71778888
  1 18753     111.30758679
  1 18752     110.89738470
  1 18763     110.50276563
  1 18762     110.09518391
  1 18765     109.66845519
  1 18761     109.43729051
  1 18764     108.18977987
  1 18356     106.80383722
  1 18776     105.37546008
  1 18786     103.95309538
  1 18777     103.78222184
  1 18785     103.50525742
  1 18771     103.32323555
  1 18782     103.14121368
  1 18774     102.83522269
  1 18781     102.61466857
  1 18775     102.39411445
  1 18783     102.15568228
  1 18362     101.92144156
  1 18361     101.62477548
  1 18364     101.33059936
  1 18365     101.03437744
  1 18366     100.87744274
  1 18370     100.75579813
  1 18375     100.48043764
  1 18376     100.27027522
  1 18380     100.11306776
  1 18373      99.83766605
  1 18372      99.50434693
  1 18374      99.33673293
  1 18062      98.69645778
  1 18061      98.27271498
  1 18058      97.87723337
  1 18060      97.56622449
  1 18057      97.47812483
  1 18063      97.10086314
  1 18056      96.57450144
  1 17760      96.09988975
  1 18067      95.72987394
  1 17758      95.35889431
  1 17755      94.81814790
  1 17754      93.60532150
  1 17753      93.20678851
  1 17480      92.79121998
  1 17481      91.95644995
  1 17483      91.47236071
  1 17482      91.17806079
  1 17476      90.75454863
  1 17487      90.18777900
END period  1

