BEGIN options
  SAVE_FLOWS
END options

BEGIN dimensions
  MAXBOUND  58
END dimensions

BEGIN period  1
  1 1879     178.98111117
  1 1880     178.50056971
  1 1874     177.00976033
  1 1877     173.49925668
  1 1878     172.50304225
  1 1882     171.56804396
  1 1884     171.07151783
  1 1886     170.50428811
  1 1883     167.21612903
  1 1887     164.13766146
  1 1754     158.37770265
  1 1743     157.46229272
  1 1753     156.44963983
  1 1752     155.61514836
  1 1750     153.07680353
  1 1747     152.08654540
  1 1751     151.92749060
  1 1749     151.10159993
  1 1757     148.32535281
  1 1624     146.75076096
  1 1623     145.71584372
  1 1625     143.08892497
  1 1622     142.13665238
  1 1626     141.45541937
  1 1631     138.06111329
  1 1620     136.81221039
  1 1632     136.03853506
  1 1633     133.53502584
  1 1630     132.74914028
  1 1475     131.83806702
  1 1474     131.10380814
  1 1484     130.48090673
  1 1486     129.87704369
  1 1485     128.54504830
  1 1479     127.86114369
  1 1482     127.00652237
  1 1491     125.78445772
  1 1483     122.76258270
  1 1492     117.73255177
  1 1495     114.00000000
  1 1496     114.00000000
  1 1499     113.43206630
  1 1501     112.79271508
  1 1500     112.10570856
  1 1503     110.87753185
  1 1504     108.17487382
  1 1509     106.51485675
  1 1291     103.51239295
  1 1510     102.78157436
  1 1288     102.28795772
  1 1292     101.55230403
  1 1301     100.73980417
  1 1303     100.20913506
  1 1302      98.18814592
  1 1299      96.61594004
  1 1296      95.71163361
  1 1297      93.04374676
  1 1145      91.78504617
END period  1

