BEGIN options
  SAVE_FLOWS
END options

BEGIN dimensions
  MAXBOUND  279
END dimensions

BEGIN period  1
  1 26333     135.01043425
  1 26331     135.29141051
  1 26334     135.85465546
  1 26337     136.18528438
  1 26341     136.51880589
  1 26332     136.59344293
  1 26330     135.56495662
  1 26342     134.27269503
  1 26345     132.59181497
  1 26361     130.03546845
  1 26346     129.65662431
  1 26356     129.16104592
  1 26351     128.66546753
  1 26355     128.16988914
  1 26352     127.67431076
  1 26367     127.16925392
  1 26362     126.84138676
  1 26364     126.58941336
  1 26376     126.22049927
  1 26368     125.76579018
  1 26373     125.42558279
  1 26381     125.10587018
  1 26377     123.93771584
  1 26380     123.08208412
  1 26392     122.21780569
  1 26393     121.39637906
  1 26390     120.52811414
  1 26387     119.97623381
  1 26389     119.77199602
  1 26391     119.28498285
  1 26046     118.48939124
  1 26397     117.57430903
  1 26043     117.02165220
  1 26398     116.55080674
  1 26047     115.72919664
  1 26056     114.86862467
  1 26052     114.01413301
  1 26053     113.21602772
  1 26064     114.43862990
  1 26057     113.89894593
  1 26063     113.61027500
  1 26065     113.34617639
  1 26068     112.92399133
  1 26067     112.46178486
  1 26073     111.42340247
  1 26062     111.23393713
  1 26075     111.06475617
  1 26074     110.90808345
  1 26072     110.78035318
  1 26076     110.56598437
  1 26083     110.11182108
  1 26081     110.01891946
  1 26087     109.92441757
  1 26084     109.82891357
  1 26414     109.72488263
  1 26089     109.40788047
  1 26092     109.30842133
  1 26417     109.19946394
  1 26416     109.05600706
  1 26422     108.91997847
  1 26423     108.73028459
  1 26421     108.46489664
  1 26424     108.18387676
  1 26100     107.85399194
  1 26102     107.45224007
  1 26101     106.99299835
  1 26098     106.69737181
  1 26106     106.35362189
  1 26107     105.83115287
  1 26116     105.29485779
  1 26113     105.02444650
  1 26117     104.75502910
  1 26122     104.23557661
  1 26111     103.97665293
  1 26120     103.66992598
  1 25814     103.11678605
  1 25813     102.83774878
  1 25818     102.56318209
  1 25817     102.07256439
  1 25826     101.57854712
  1 25825     100.85970131
  1 25827     100.84586433
  1 25828     100.83642672
  1 25822     100.81808786
  1 25820     100.79429504
  1 25543     100.77087102
  1 25538     100.75842717
  1 25541     100.74703998
  1 25535     100.72433577
  1 25536     100.70084265
  1 25550     100.67872500
  1 25547     100.66544893
  1 25551     100.65101176
  1 25554     100.62820338
  1 25555     100.60538930
  1 25566     100.50074586
  1 25561     100.36028149
  1 25560     100.28083071
  1 25564     100.20776679
  1 25565     100.08011796
  1 25581      99.95822024
  1 25571      99.53884008
  1 25579      98.93320556
  1 25582      97.95009748
  1 25585      97.14952083
  1 25583      94.50823200
  1 25578      92.33125791
  1 25577      91.12005503
  1 25588      88.67715400
  1 25589      87.91522980
  1 25587      87.26588507
  1 25314      85.77587308
  1 25311      85.53996795
  1 25306      85.23788761
  1 25312      84.77827505
  1 25305      84.32734403
  1 25304      84.03390931
  1 25046      83.90579572
  1 25051      83.76988286
  1 25316      83.53487987
  1 25317      83.16991356
  1 25319      82.73797877
  1 25321      82.46911969
  1 25322      81.99969665
  1 25323      81.89332288
  1 25595      81.76938345
  1 25324      81.66181954
  1 25598      81.56123908
  1 25599      81.41607958
  1 25333      81.29488918
  1 25604      81.20312431
  1 25335      81.12897429
  1 25334      81.05003371
  1 25332      80.94148008
  1 25329      80.29542657
  1 25327      78.88467895
  1 25065      78.80050931
  1 25060      78.74736186
  1 25062      78.68361804
  1 25063      78.59751903
  1 25057      78.52705748
  1 25058      78.49233758
  1 25064      78.41069658
  1 25071      78.26260433
  1 25069      78.16915923
  1 25340      78.09827051
  1 25072      78.03578338
  1 25343      77.96813978
  1 25076      77.84605234
  1 25344      77.77313893
  1 25085      77.26346713
  1 25087      76.71456116
  1 25080      76.11999630
  1 25086      75.69775890
  1 25081      75.45138614
  1 25083      75.08305677
  1 25082      74.62271709
  1 25093      73.95962937
  1 25090      73.57922258
  1 25092      72.91418005
  1 25100      72.87116584
  1 25096      72.82419847
  1 25097      72.77234328
  1 25105      72.72092719
  1 25109      72.65891948
  1 25106      72.59797607
  1 25107      72.53447456
  1 24839      72.46836308
  1 24836      72.42834037
  1 24834      72.38307751
  1 24827      72.33062734
  1 24833      72.31373343
  1 24828      71.95628731
  1 24831      71.57070931
  1 24830      70.77893305
  1 24829      70.46109957
  1 24841      70.14458563
  1 24842      69.43364822
  1 24625      69.20592700
  1 24845      69.07549908
  1 24621      68.97320496
  1 24623      68.85554650
  1 24624      68.75183049
  1 24619      68.12887281
  1 24387      67.36724120
  1 24384      66.61816041
  1 24385      66.20236896
  1 24381      65.94038885
  1 24382      64.93999924
  1 24388      64.63031192
  1 24380      64.41786041
  1 24389      64.21895385
  1 24392      63.74448735
  1 24393      63.73879632
  1 24403      63.73280946
  1 24395      63.72367832
  1 24400      63.71855944
  1 24404      63.71360891
  1 24409      63.53035841
  1 24407      63.34920037
  1 24410      63.17169876
  1 24421      62.81558379
  1 24420      62.14192640
  1 24422      61.96970605
  1 24414      61.84995656
  1 24417      61.47611423
  1 24418      61.44406849
  1 24416      61.41362842
  1 24180      61.37372451
  1 24424      61.34753059
  1 24179      61.32616373
  1 24178      61.31335921
  1 24174      61.38129403
  1 24176      61.48715455
  1 23945      61.56730071
  1 23948      61.65263239
  1 23949      61.46650658
  1 24183      60.79093348
  1 23954      60.27998734
  1 24186      59.82613344
  1 24184      59.45283857
  1 24188      58.99612255
  1 24189      58.32775424
  1 24187      58.00117162
  1 24193      57.63101189
  1 23965      56.92558381
  1 23964      56.53030685
  1 23963      56.13115410
  1 23960      55.03515226
  1 23723      54.81999218
  1 23958      54.60625677
  1 23726      54.41553601
  1 23727      54.20914219
  1 23968      53.99315650
  1 23732      53.76938777
  1 23967      53.48640992
  1 23979      53.02402313
  1 23971      52.75561727
  1 23974      52.48731851
  1 23973      52.02051191
  1 23980      51.62826609
  1 23978      51.21406268
  1 23744      50.72452584
  1 23746      50.23926100
  1 23738      49.75605987
  1 23739      49.06217855
  1 23736      48.56305462
  1 23507      48.04001351
  1 23508      46.92395044
  1 23516      46.66907129
  1 23752      46.39406120
  1 23517      46.07941702
  1 23749      45.82397690
  1 23521      45.38669011
  1 23753      45.10592589
  1 23519      44.79078857
  1 23524      44.00000000
  1 23513      44.00000000
  1 23525      44.00000000
  1 23527      44.00000000
  1 23528      44.00000000
  1 23526      44.00000000
  1 23321      44.00000000
  1 23310      44.00000000
  1 23322      44.00000000
  1 23320      44.00000000
  1 23314      43.65302216
  1 23312      42.97435012
  1 23101      42.25572609
  1 23315      41.84754705
  1 23099      41.58952212
  1 23100      41.09874625
  1 23105      40.49640551
  1 23097      39.97252626
  1 23106      39.66379159
  1 23109      39.11882099
  1 23112      39.36658534
  1 23115      39.65993543
  1 23114      39.91217108
END period  1

