BEGIN options
  SAVE_FLOWS
END options

BEGIN dimensions
  MAXBOUND  87
END dimensions

BEGIN period  1
  1 3864     135.25041678
  1 3865     135.78505783
  1 3711     135.58777404
  1 3716     129.95232324
  1 3720     129.25482340
  1 3717     127.42880390
  1 3872     123.25628861
  1 3871     121.92909752
  1 3877     120.61186221
  1 3878     119.09826898
  1 3727     117.89512218
  1 3730     115.99578517
  1 3731     113.21886011
  1 3736     113.95091229
  1 3737     113.11275595
  1 3735     111.20106655
  1 3738     109.98464672
  1 3740     109.40868689
  1 3741     109.23518550
  1 3886     109.04919308
  1 3891     108.93192690
  1 3749     107.60088579
  1 3747     106.38398938
  1 3748     105.77967576
  1 3750     104.90786444
  1 3751     103.24960117
  1 3752     100.84517937
  1 3746     100.79357655
  1 3757     100.75791980
  1 3744     100.72871412
  1 3755     100.67401814
  1 3756     100.40142875
  1 3759      98.81862839
  1 3762      97.44139431
  1 3761      97.05176285
  1 3760      93.76929931
  1 3765      88.60685111
  1 3602      85.25580635
  1 3600      84.46394374
  1 3601      83.91453967
  1 3603      81.84996377
  1 3766      81.53685425
  1 3769      81.31682416
  1 3606      81.07174107
  1 3607      80.52771535
  1 3605      78.64750806
  1 3604      78.29318688
  1 3616      78.01977012
  1 3617      77.01423035
  1 3611      75.53035356
  1 3620      72.87914338
  1 3614      72.78456204
  1 3621      72.66651274
  1 3626      72.55369391
  1 3615      72.44429103
  1 3613      71.98727131
  1 3624      70.47497022
  1 3625      69.72763562
  1 3492      67.76942922
  1 3490      64.72291085
  1 3493      63.73591888
  1 3494      63.71638073
  1 3496      63.53577728
  1 3507      63.25829932
  1 3505      62.06957178
  1 3506      61.78588336
  1 3500      61.41436443
  1 3498      61.58967624
  1 3501      61.21578913
  1 3503      60.33665793
  1 3504      59.60778392
  1 3502      58.76638180
  1 3510      57.93452971
  1 3398      54.71211070
  1 3399      53.23480898
  1 3514      52.37384962
  1 3511      52.01141462
  1 3402      51.22802494
  1 3400      48.72188363
  1 3401      46.45929072
  1 3412      45.52686200
  1 3406      44.00000000
  1 3407      44.00000000
  1 3405      44.00000000
  1 3408      43.30689413
  1 3284      41.73730657
  1 3285      39.93041245
END period  1

