BEGIN options
  SAVE_FLOWS
END options

BEGIN dimensions
  MAXBOUND  911
END dimensions

BEGIN period  1
  1 19480       0.00000000
  1 19498       0.00000000
  1 19500       0.00000000
  1 18983       0.00000000
  1 18986       0.00000000
  1 19251       0.00000000
  1 19254       0.00000000
  1 19253       0.00000000
  1 19255       0.00000000
  1 20033       0.00000000
  1 20034       0.00000000
  1 19770       0.00000000
  1 19775       0.00000000
  1 19737       0.00000000
  1 19481       0.00000000
  1 19992       0.00000000
  1 20036       0.00000000
  1 20276       0.00000000
  1 20278       0.00000000
  1 20019       0.00000000
  1 20270       0.00000000
  1 20265       0.00000000
  1 20500       0.00000000
  1 20512       0.00000000
  1 20514       0.00000000
  1 20805       0.00000000
  1 20807       0.00000000
  1 20793       0.00000000
  1 21092       0.00000000
  1 21094       0.00000000
  1 21080       0.00000000
  1 21318       0.00000000
  1 21642       0.00000000
  1 22019       0.00000000
  1 22021       0.00000000
  1 22287       0.00000000
  1 22286       0.00000000
  1 22528       0.00000000
  1 19482       0.00000000
  1 19740       0.00000000
  1 19743       0.00000000
  1 19749       0.00000000
  1 19754       0.00000000
  1 19764       0.00000000
  1 20017       0.00000000
  1 19755       0.00000000
  1 21331       0.00000000
  1 21651       0.00000000
  1 21333       0.00000000
  1 21335       0.00000000
  1 21653       0.00000000
  1 21655       0.00000000
  1 19497       0.00000000
  1 19499       0.00000000
  1 19252       0.00000000
  1 19487       0.00000000
  1 19488       0.00000000
  1 19483       0.00000000
  1 19484       0.00000000
  1 20035       0.00000000
  1 20024       0.00000000
  1 19767       0.00000000
  1 19769       0.00000000
  1 19772       0.00000000
  1 19774       0.00000000
  1 20275       0.00000000
  1 20277       0.00000000
  1 20027       0.00000000
  1 20025       0.00000000
  1 20273       0.00000000
  1 20271       0.00000000
  1 20501       0.00000000
  1 20028       0.00000000
  1 20268       0.00000000
  1 20266       0.00000000
  1 20506       0.00000000
  1 20511       0.00000000
  1 20513       0.00000000
  1 20804       0.00000000
  1 20806       0.00000000
  1 20799       0.00000000
  1 20794       0.00000000
  1 21091       0.00000000
  1 21093       0.00000000
  1 21086       0.00000000
  1 21081       0.00000000
  1 21319       0.00000000
  1 21645       0.00000000
  1 21643       0.00000000
  1 22020       0.00000000
  1 19485       0.00000000
  1 19746       0.00000000
  1 19744       0.00000000
  1 19752       0.00000000
  1 19759       0.00000000
  1 19758       0.00000000
  1 19765       0.00000000
  1 19753       0.00000000
  1 20022       0.00000000
  1 20020       0.00000000
  1 21330       0.00000000
  1 21648       0.00000000
  1 21332       0.00000000
  1 21334       0.00000000
  1 21650       0.00000000
  1 21649       0.00000000
  1 21646       0.00000000
  1 19766       0.00000000
  1 19494       0.00000000
  1 19496       0.00000000
  1 19489       0.00000000
  1 19490       0.00000000
  1 19493       0.00000000
  1 19486       0.00000000
  1 20030       0.00000000
  1 20032       0.00000000
  1 20029       0.00000000
  1 20021       0.00000000
  1 20023       0.00000000
  1 19768       0.00000000
  1 19771       0.00000000
  1 19773       0.00000000
  1 20267       0.00000000
  1 20269       0.00000000
  1 20272       0.00000000
  1 20274       0.00000000
  1 20026       0.00000000
  1 20502       0.00000000
  1 20504       0.00000000
  1 20031       0.00000000
  1 20509       0.00000000
  1 20507       0.00000000
  1 20503       0.00000000
  1 20505       0.00000000
  1 20508       0.00000000
  1 20510       0.00000000
  1 20796       0.00000000
  1 20798       0.00000000
  1 20801       0.00000000
  1 20803       0.00000000
  1 20802       0.00000000
  1 20800       0.00000000
  1 20797       0.00000000
  1 20795       0.00000000
  1 21083       0.00000000
  1 21085       0.00000000
  1 21088       0.00000000
  1 21090       0.00000000
  1 21089       0.00000000
  1 21087       0.00000000
  1 21320       0.00000000
  1 21084       0.00000000
  1 21082       0.00000000
  1 21325       0.00000000
  1 21644       0.00000000
  1 19747       0.00000000
  1 19745       0.00000000
  1 19757       0.00000000
  1 19762       0.00000000
  1 19756       0.00000000
  1 19763       0.00000000
  1 21322       0.00000000
  1 21324       0.00000000
  1 21647       0.00000000
  1 21327       0.00000000
  1 21329       0.00000000
  1 19761       0.00000000
  1 19495       0.00000000
  1 19491       0.00000000
  1 19492       0.00000000
  1 21321       0.00000000
  1 21323       0.00000000
  1 21328       0.00000000
  1 21326       0.00000000
  1 19760       0.00000000
  1 19479       0.00000000
  1 19502       0.00000000
  1 19501       0.00000000
  1 18631       0.00000000
  1 18634       0.00000000
  1 18635       0.00000000
  1 18633       0.00000000
  1 18632       0.00000000
  1 18636       0.00000000
  1 18637       0.00000000
  1 18980       0.00000000
  1 18982       0.00000000
  1 18987       0.00000000
  1 18985       0.00000000
  1 18984       0.00000000
  1 18981       0.00000000
  1 19256       0.00000000
  1 19250       0.00000000
  1 19249       0.00000000
  1 19776       0.00000000
  1 19777       0.00000000
  1 19735       0.00000000
  1 19736       0.00000000
  1 19738       0.00000000
  1 19989       0.00000000
  1 19990       0.00000000
  1 20037       0.00000000
  1 19991       0.00000000
  1 20279       0.00000000
  1 20263       0.00000000
  1 20264       0.00000000
  1 20245       0.00000000
  1 20244       0.00000000
  1 20499       0.00000000
  1 20515       0.00000000
  1 20808       0.00000000
  1 20792       0.00000000
  1 21095       0.00000000
  1 21079       0.00000000
  1 21078       0.00000000
  1 21317       0.00000000
  1 21640       0.00000000
  1 21641       0.00000000
  1 22018       0.00000000
  1 22022       0.00000000
  1 22288       0.00000000
  1 22284       0.00000000
  1 22285       0.00000000
  1 22527       0.00000000
  1 22529       0.00000000
  1 22530       0.00000000
  1 22762       0.00000000
  1 22760       0.00000000
  1 22761       0.00000000
  1 19739       0.00000000
  1 19748       0.00000000
  1 19751       0.00000000
  1 19750       0.00000000
  1 19741       0.00000000
  1 19742       0.00000000
  1 19993       0.00000000
  1 19995       0.00000000
  1 19994       0.00000000
  1 20010       0.00000000
  1 20016       0.00000000
  1 20018       0.00000000
  1 20013       0.00000000
  1 20246       0.00000000
  1 20262       0.00000000
  1 20496       0.00000000
  1 21338       0.00000000
  1 21337       0.00000000
  1 21339       0.00000000
  1 21336       0.00000000
  1 21667       0.00000000
  1 21670       0.00000000
  1 21669       0.00000000
  1 21665       0.00000000
  1 21671       0.00000000
  1 21672       0.00000000
  1 21664       0.00000000
  1 21659       0.00000000
  1 21661       0.00000000
  1 21663       0.00000000
  1 21668       0.00000000
  1 21662       0.00000000
  1 21660       0.00000000
  1 21652       0.00000000
  1 21657       0.00000000
  1 21658       0.00000000
  1 21656       0.00000000
  1 21654       0.00000000
  1 21673       0.00000000
  1 2818       0.00000000
  1 2976       0.00000000
  1 2984       0.00000000
  1 3149       0.00000000
  1 3150       0.00000000
  1 3141       0.00000000
  1 3142       0.00000000
  1 2985       0.00000000
  1 3147       0.00000000
  1 3146       0.00000000
  1 3152       0.00000000
  1 3315       0.00000000
  1 3307       0.00000000
  1 3311       0.00000000
  1 3143       0.00000000
  1 3312       0.00000000
  1 3319       0.00000000
  1 3486       0.00000000
  1 3474       0.00000000
  1 3641       0.00000000
  1 3652       0.00000000
  1 3808       0.00000000
  1 3819       0.00000000
  1 3985       0.00000000
  1 3976       0.00000000
  1 4143       0.00000000
  1 4151       0.00000000
  1 4310       0.00000000
  1 4318       0.00000000
  1 4477       0.00000000
  1 4643       0.00000000
  1 4484       0.00000000
  1 4642       0.00000000
  1 4650       0.00000000
  1 4808       0.00000000
  1 4817       0.00000000
  1 5140       0.00000000
  1 5139       0.00000000
  1 4975       0.00000000
  1 5141       0.00000000
  1 4984       0.00000000
  1 5305       0.00000000
  1 5151       0.00000000
  1 5471       0.00000000
  1 5318       0.00000000
  1 5637       0.00000000
  1 5636       0.00000000
  1 6637       0.00000000
  1 6805       0.00000000
  1 6636       0.00000000
  1 6635       0.00000000
  1 6821       0.00000000
  1 5485       0.00000000
  1 5652       0.00000000
  1 5802       0.00000000
  1 5968       0.00000000
  1 5819       0.00000000
  1 5986       0.00000000
  1 6152       0.00000000
  1 6135       0.00000000
  1 6301       0.00000000
  1 6318       0.00000000
  1 6484       0.00000000
  1 6468       0.00000000
  1 6819       0.00000000
  1 6651       0.00000000
  1 6820       0.00000000
  1 6972       0.00000000
  1 6988       0.00000000
  1 7139       0.00000000
  1 7154       0.00000000
  1 7321       0.00000000
  1 7306       0.00000000
  1 7474       0.00000000
  1 7488       0.00000000
  1 7641       0.00000000
  1 7655       0.00000000
  1 7808       0.00000000
  1 7654       0.00000000
  1 7820       0.00000000
  1 8154       0.00000000
  1 7986       0.00000000
  1 7975       0.00000000
  1 8322       0.00000000
  1 8143       0.00000000
  1 8323       0.00000000
  1 8310       0.00000000
  1 8478       0.00000000
  1 8489       0.00000000
  1 8486       0.00000000
  1 8652       0.00000000
  1 8645       0.00000000
  1 8488       0.00000000
  1 8487       0.00000000
  1 8650       0.00000000
  1 8646       0.00000000
  1 8814       0.00000000
  1 8651       0.00000000
  1 8649       0.00000000
  1 8815       0.00000000
  1 3151       0.00000000
  1 3316       0.00000000
  1 3317       0.00000000
  1 3308       0.00000000
  1 3309       0.00000000
  1 3314       0.00000000
  1 3313       0.00000000
  1 3482       0.00000000
  1 3478       0.00000000
  1 3310       0.00000000
  1 3479       0.00000000
  1 3318       0.00000000
  1 3485       0.00000000
  1 3475       0.00000000
  1 3642       0.00000000
  1 3651       0.00000000
  1 3809       0.00000000
  1 3818       0.00000000
  1 3984       0.00000000
  1 3977       0.00000000
  1 4144       0.00000000
  1 4150       0.00000000
  1 4311       0.00000000
  1 4317       0.00000000
  1 4478       0.00000000
  1 4644       0.00000000
  1 4810       0.00000000
  1 4483       0.00000000
  1 4809       0.00000000
  1 4649       0.00000000
  1 4816       0.00000000
  1 5307       0.00000000
  1 5306       0.00000000
  1 4976       0.00000000
  1 5142       0.00000000
  1 5308       0.00000000
  1 4983       0.00000000
  1 5472       0.00000000
  1 5150       0.00000000
  1 5638       0.00000000
  1 5317       0.00000000
  1 5804       0.00000000
  1 5803       0.00000000
  1 6470       0.00000000
  1 6638       0.00000000
  1 6806       0.00000000
  1 6469       0.00000000
  1 5484       0.00000000
  1 5651       0.00000000
  1 5969       0.00000000
  1 5818       0.00000000
  1 5985       0.00000000
  1 6151       0.00000000
  1 6136       0.00000000
  1 6302       0.00000000
  1 6317       0.00000000
  1 6483       0.00000000
  1 6986       0.00000000
  1 6818       0.00000000
  1 6650       0.00000000
  1 6987       0.00000000
  1 6973       0.00000000
  1 7140       0.00000000
  1 7153       0.00000000
  1 7320       0.00000000
  1 7307       0.00000000
  1 7475       0.00000000
  1 7487       0.00000000
  1 7642       0.00000000
  1 7809       0.00000000
  1 7653       0.00000000
  1 7819       0.00000000
  1 8321       0.00000000
  1 8153       0.00000000
  1 7985       0.00000000
  1 7976       0.00000000
  1 8144       0.00000000
  1 8311       0.00000000
  1 8479       0.00000000
  1 8319       0.00000000
  1 8485       0.00000000
  1 8320       0.00000000
  1 8483       0.00000000
  1 8647       0.00000000
  1 8484       0.00000000
  1 8482       0.00000000
  1 8648       0.00000000
  1 3483       0.00000000
  1 3484       0.00000000
  1 3476       0.00000000
  1 3481       0.00000000
  1 3480       0.00000000
  1 3649       0.00000000
  1 3645       0.00000000
  1 3477       0.00000000
  1 3646       0.00000000
  1 3643       0.00000000
  1 3650       0.00000000
  1 3810       0.00000000
  1 3817       0.00000000
  1 3983       0.00000000
  1 3978       0.00000000
  1 4145       0.00000000
  1 4149       0.00000000
  1 4312       0.00000000
  1 4316       0.00000000
  1 4479       0.00000000
  1 4645       0.00000000
  1 4811       0.00000000
  1 4977       0.00000000
  1 4482       0.00000000
  1 4648       0.00000000
  1 4815       0.00000000
  1 5474       0.00000000
  1 5473       0.00000000
  1 5143       0.00000000
  1 5309       0.00000000
  1 5475       0.00000000
  1 4982       0.00000000
  1 5639       0.00000000
  1 5149       0.00000000
  1 5805       0.00000000
  1 5316       0.00000000
  1 5971       0.00000000
  1 5970       0.00000000
  1 6303       0.00000000
  1 6471       0.00000000
  1 6639       0.00000000
  1 6807       0.00000000
  1 5483       0.00000000
  1 5650       0.00000000
  1 5817       0.00000000
  1 5984       0.00000000
  1 6150       0.00000000
  1 6137       0.00000000
  1 6316       0.00000000
  1 6482       0.00000000
  1 6985       0.00000000
  1 6817       0.00000000
  1 6649       0.00000000
  1 6974       0.00000000
  1 7141       0.00000000
  1 7152       0.00000000
  1 7319       0.00000000
  1 7308       0.00000000
  1 7476       0.00000000
  1 7486       0.00000000
  1 7643       0.00000000
  1 7810       0.00000000
  1 7652       0.00000000
  1 7818       0.00000000
  1 8152       0.00000000
  1 7984       0.00000000
  1 7977       0.00000000
  1 8145       0.00000000
  1 8312       0.00000000
  1 8480       0.00000000
  1 8318       0.00000000
  1 8316       0.00000000
  1 8317       0.00000000
  1 8315       0.00000000
  1 8481       0.00000000
  1 3648       0.00000000
  1 3647       0.00000000
  1 3816       0.00000000
  1 3812       0.00000000
  1 3644       0.00000000
  1 3813       0.00000000
  1 3811       0.00000000
  1 3982       0.00000000
  1 3979       0.00000000
  1 4146       0.00000000
  1 4148       0.00000000
  1 4313       0.00000000
  1 4315       0.00000000
  1 4480       0.00000000
  1 4646       0.00000000
  1 4812       0.00000000
  1 4978       0.00000000
  1 5144       0.00000000
  1 4481       0.00000000
  1 4647       0.00000000
  1 4814       0.00000000
  1 5641       0.00000000
  1 5640       0.00000000
  1 5310       0.00000000
  1 5476       0.00000000
  1 5642       0.00000000
  1 4981       0.00000000
  1 5806       0.00000000
  1 5148       0.00000000
  1 5972       0.00000000
  1 5315       0.00000000
  1 6138       0.00000000
  1 6304       0.00000000
  1 6472       0.00000000
  1 6640       0.00000000
  1 6808       0.00000000
  1 5482       0.00000000
  1 5649       0.00000000
  1 5816       0.00000000
  1 5983       0.00000000
  1 6149       0.00000000
  1 6315       0.00000000
  1 6481       0.00000000
  1 6984       0.00000000
  1 6816       0.00000000
  1 6648       0.00000000
  1 6975       0.00000000
  1 7142       0.00000000
  1 7151       0.00000000
  1 7318       0.00000000
  1 7309       0.00000000
  1 7477       0.00000000
  1 7485       0.00000000
  1 7644       0.00000000
  1 7811       0.00000000
  1 7651       0.00000000
  1 7817       0.00000000
  1 8151       0.00000000
  1 7983       0.00000000
  1 7978       0.00000000
  1 8146       0.00000000
  1 8313       0.00000000
  1 8149       0.00000000
  1 8150       0.00000000
  1 8148       0.00000000
  1 8314       0.00000000
  1 3815       0.00000000
  1 3814       0.00000000
  1 3980       0.00000000
  1 3981       0.00000000
  1 4147       0.00000000
  1 4314       0.00000000
  1 4813       0.00000000
  1 4979       0.00000000
  1 5145       0.00000000
  1 5311       0.00000000
  1 5808       0.00000000
  1 5807       0.00000000
  1 5477       0.00000000
  1 5643       0.00000000
  1 5809       0.00000000
  1 4980       0.00000000
  1 5973       0.00000000
  1 5147       0.00000000
  1 6139       0.00000000
  1 5314       0.00000000
  1 6305       0.00000000
  1 6473       0.00000000
  1 6641       0.00000000
  1 6809       0.00000000
  1 5481       0.00000000
  1 5648       0.00000000
  1 5815       0.00000000
  1 5982       0.00000000
  1 6148       0.00000000
  1 6314       0.00000000
  1 6480       0.00000000
  1 6983       0.00000000
  1 6815       0.00000000
  1 6647       0.00000000
  1 6976       0.00000000
  1 7143       0.00000000
  1 7150       0.00000000
  1 7317       0.00000000
  1 7310       0.00000000
  1 7478       0.00000000
  1 7484       0.00000000
  1 7645       0.00000000
  1 7812       0.00000000
  1 7650       0.00000000
  1 7816       0.00000000
  1 7982       0.00000000
  1 7979       0.00000000
  1 8147       0.00000000
  1 7981       0.00000000
  1 5146       0.00000000
  1 5312       0.00000000
  1 5478       0.00000000
  1 5975       0.00000000
  1 5974       0.00000000
  1 5644       0.00000000
  1 5810       0.00000000
  1 5976       0.00000000
  1 6140       0.00000000
  1 6306       0.00000000
  1 5313       0.00000000
  1 6474       0.00000000
  1 6642       0.00000000
  1 6810       0.00000000
  1 5480       0.00000000
  1 5647       0.00000000
  1 5814       0.00000000
  1 5981       0.00000000
  1 6147       0.00000000
  1 6313       0.00000000
  1 6479       0.00000000
  1 6982       0.00000000
  1 6814       0.00000000
  1 6646       0.00000000
  1 6977       0.00000000
  1 7144       0.00000000
  1 7149       0.00000000
  1 7316       0.00000000
  1 7311       0.00000000
  1 7479       0.00000000
  1 7483       0.00000000
  1 7646       0.00000000
  1 7813       0.00000000
  1 7649       0.00000000
  1 7815       0.00000000
  1 7980       0.00000000
  1 7814       0.00000000
  1 5479       0.00000000
  1 5645       0.00000000
  1 6142       0.00000000
  1 6141       0.00000000
  1 5811       0.00000000
  1 5977       0.00000000
  1 6143       0.00000000
  1 6307       0.00000000
  1 6475       0.00000000
  1 6643       0.00000000
  1 6811       0.00000000
  1 5646       0.00000000
  1 5813       0.00000000
  1 5980       0.00000000
  1 6146       0.00000000
  1 6312       0.00000000
  1 6478       0.00000000
  1 6981       0.00000000
  1 6813       0.00000000
  1 6645       0.00000000
  1 6978       0.00000000
  1 7145       0.00000000
  1 7148       0.00000000
  1 7315       0.00000000
  1 7312       0.00000000
  1 7480       0.00000000
  1 7482       0.00000000
  1 7647       0.00000000
  1 7648       0.00000000
  1 5812       0.00000000
  1 6309       0.00000000
  1 6308       0.00000000
  1 5978       0.00000000
  1 6144       0.00000000
  1 6310       0.00000000
  1 6476       0.00000000
  1 6644       0.00000000
  1 6812       0.00000000
  1 5979       0.00000000
  1 6145       0.00000000
  1 6311       0.00000000
  1 6477       0.00000000
  1 6980       0.00000000
  1 6979       0.00000000
  1 7146       0.00000000
  1 7147       0.00000000
  1 7314       0.00000000
  1 7313       0.00000000
  1 7481       0.00000000
  1 2482       0.00000000
  1 2484       0.00000000
  1 2483       0.00000000
  1 2485       0.00000000
  1 2650       0.00000000
  1 2652       0.00000000
  1 2651       0.00000000
  1 2819       0.00000000
  1 2816       0.00000000
  1 2817       0.00000000
  1 2981       0.00000000
  1 2982       0.00000000
  1 2983       0.00000000
  1 2975       0.00000000
  1 2986       0.00000000
  1 2977       0.00000000
  1 3153       0.00000000
  1 3148       0.00000000
  1 3144       0.00000000
  1 3145       0.00000000
  1 3320       0.00000000
  1 3487       0.00000000
  1 3654       0.00000000
  1 3653       0.00000000
  1 3820       0.00000000
  1 3986       0.00000000
  1 3987       0.00000000
  1 3975       0.00000000
  1 4142       0.00000000
  1 4152       0.00000000
  1 4153       0.00000000
  1 4309       0.00000000
  1 4319       0.00000000
  1 4474       0.00000000
  1 4476       0.00000000
  1 4486       0.00000000
  1 4485       0.00000000
  1 4475       0.00000000
  1 4651       0.00000000
  1 4641       0.00000000
  1 4652       0.00000000
  1 4640       0.00000000
  1 4818       0.00000000
  1 4807       0.00000000
  1 4971       0.00000000
  1 4973       0.00000000
  1 4972       0.00000000
  1 4974       0.00000000
  1 4985       0.00000000
  1 5137       0.00000000
  1 5138       0.00000000
  1 5152       0.00000000
  1 5303       0.00000000
  1 5304       0.00000000
  1 5319       0.00000000
  1 5467       0.00000000
  1 5470       0.00000000
  1 5468       0.00000000
  1 5469       0.00000000
  1 6801       0.00000000
  1 6800       0.00000000
  1 6804       0.00000000
  1 6803       0.00000000
  1 6802       0.00000000
  1 6822       0.00000000
  1 6823       0.00000000
  1 5486       0.00000000
  1 5487       0.00000000
  1 5634       0.00000000
  1 5653       0.00000000
  1 5654       0.00000000
  1 5635       0.00000000
  1 5800       0.00000000
  1 5821       0.00000000
  1 5801       0.00000000
  1 5820       0.00000000
  1 5967       0.00000000
  1 5988       0.00000000
  1 5987       0.00000000
  1 5989       0.00000000
  1 6153       0.00000000
  1 6156       0.00000000
  1 6134       0.00000000
  1 6155       0.00000000
  1 6154       0.00000000
  1 6133       0.00000000
  1 6300       0.00000000
  1 6321       0.00000000
  1 6320       0.00000000
  1 6319       0.00000000
  1 6322       0.00000000
  1 6323       0.00000000
  1 6486       0.00000000
  1 6490       0.00000000
  1 6488       0.00000000
  1 6489       0.00000000
  1 6485       0.00000000
  1 6467       0.00000000
  1 6634       0.00000000
  1 6657       0.00000000
  1 6633       0.00000000
  1 6656       0.00000000
  1 6655       0.00000000
  1 6654       0.00000000
  1 6652       0.00000000
  1 6653       0.00000000
  1 6967       0.00000000
  1 6968       0.00000000
  1 6971       0.00000000
  1 6989       0.00000000
  1 6990       0.00000000
  1 7138       0.00000000
  1 7155       0.00000000
  1 7156       0.00000000
  1 7157       0.00000000
  1 7323       0.00000000
  1 7322       0.00000000
  1 7305       0.00000000
  1 7473       0.00000000
  1 7472       0.00000000
  1 7489       0.00000000
  1 7490       0.00000000
  1 7640       0.00000000
  1 7656       0.00000000
  1 7657       0.00000000
  1 7807       0.00000000
  1 7821       0.00000000
  1 7822       0.00000000
  1 7823       0.00000000
  1 7987       0.00000000
  1 7989       0.00000000
  1 7990       0.00000000
  1 7988       0.00000000
  1 7974       0.00000000
  1 8155       0.00000000
  1 8157       0.00000000
  1 8141       0.00000000
  1 8142       0.00000000
  1 8156       0.00000000
  1 8324       0.00000000
  1 8309       0.00000000
  1 8325       0.00000000
  1 8477       0.00000000
  1 8476       0.00000000
  1 8490       0.00000000
  1 8491       0.00000000
  1 8492       0.00000000
  1 8656       0.00000000
  1 8653       0.00000000
  1 8644       0.00000000
  1 8655       0.00000000
  1 8659       0.00000000
  1 8658       0.00000000
  1 8654       0.00000000
  1 8660       0.00000000
  1 8657       0.00000000
  1 8820       0.00000000
  1 8826       0.00000000
  1 8817       0.00000000
  1 8824       0.00000000
  1 8827       0.00000000
  1 8813       0.00000000
  1 8811       0.00000000
  1 8823       0.00000000
  1 8812       0.00000000
  1 8819       0.00000000
  1 8825       0.00000000
  1 8818       0.00000000
  1 8816       0.00000000
  1 8991       0.00000000
  1 8993       0.00000000
  1 8994       0.00000000
  1 8995       0.00000000
  1 8992       0.00000000
  1 8980       0.00000000
  1 8981       0.00000000
  1 8982       0.00000000
  1 8983       0.00000000
  1 9159       0.00000000
  1 9158       0.00000000
END period  1

