BEGIN options
  SAVE_FLOWS
END options

BEGIN dimensions
  MAXBOUND  163
END dimensions

BEGIN period  1
  1 2719       0.00000000
  1 2723       0.00000000
  1 2720       0.00000000
  1 2724       0.00000000
  1 2727       0.00000000
  1 2729       0.00000000
  1 2731       0.00000000
  1 2725       0.00000000
  1 2862       0.00000000
  1 2861       0.00000000
  1 2863       0.00000000
  1 2860       0.00000000
  1 2866       0.00000000
  1 2868       0.00000000
  1 2867       0.00000000
  1 2865       0.00000000
  1 3041       0.00000000
  1 3039       0.00000000
  1 3046       0.00000000
  1 3044       0.00000000
  1 3053       0.00000000
  1 3047       0.00000000
  1 3040       0.00000000
  1 3042       0.00000000
  1 3224       0.00000000
  1 2728       0.00000000
  1 2730       0.00000000
  1 3045       0.00000000
  1 3339       0.00000000
  1 2551       0.00000000
  1 2552       0.00000000
  1 2717       0.00000000
  1 2555       0.00000000
  1 2718       0.00000000
  1 2726       0.00000000
  1 2732       0.00000000
  1 2737       0.00000000
  1 2721       0.00000000
  1 2722       0.00000000
  1 2840       0.00000000
  1 2844       0.00000000
  1 2845       0.00000000
  1 2847       0.00000000
  1 2846       0.00000000
  1 2843       0.00000000
  1 2859       0.00000000
  1 2869       0.00000000
  1 2872       0.00000000
  1 2877       0.00000000
  1 2857       0.00000000
  1 2874       0.00000000
  1 2864       0.00000000
  1 2875       0.00000000
  1 2856       0.00000000
  1 3037       0.00000000
  1 3038       0.00000000
  1 3043       0.00000000
  1 3056       0.00000000
  1 3054       0.00000000
  1 3055       0.00000000
  1 3057       0.00000000
  1 3059       0.00000000
  1 3048       0.00000000
  1 3051       0.00000000
  1 3233       0.00000000
  1 3225       0.00000000
  1 3223       0.00000000
  1 3235       0.00000000
  1 3226       0.00000000
  1 3227       0.00000000
  1 3230       0.00000000
  1 3232       0.00000000
  1 3340       0.00000000
  1 356       0.00000000
  1 421       0.00000000
  1 419       0.00000000
  1 420       0.00000000
  1 482       0.00000000
  1 543       0.00000000
  1 544       0.00000000
  1 607       0.00000000
  1 609       0.00000000
  1 668       0.00000000
  1 729       0.00000000
  1 671       0.00000000
  1 732       0.00000000
  1 860       0.00000000
  1 792       0.00000000
  1 794       0.00000000
  1 862       0.00000000
  1 922       0.00000000
  1 924       0.00000000
  1 923       0.00000000
  1 424       0.00000000
  1 422       0.00000000
  1 608       0.00000000
  1 669       0.00000000
  1 730       0.00000000
  1 670       0.00000000
  1 731       0.00000000
  1 861       0.00000000
  1 793       0.00000000
  1 292       0.00000000
  1 353       0.00000000
  1 351       0.00000000
  1 352       0.00000000
  1 480       0.00000000
  1 483       0.00000000
  1 481       0.00000000
  1 545       0.00000000
  1 542       0.00000000
  1 541       0.00000000
  1 610       0.00000000
  1 606       0.00000000
  1 604       0.00000000
  1 605       0.00000000
  1 667       0.00000000
  1 666       0.00000000
  1 733       0.00000000
  1 734       0.00000000
  1 728       0.00000000
  1 672       0.00000000
  1 789       0.00000000
  1 859       0.00000000
  1 791       0.00000000
  1 790       0.00000000
  1 795       0.00000000
  1 863       0.00000000
  1 1047       0.00000000
  1 1049       0.00000000
  1 1046       0.00000000
  1 921       0.00000000
  1 925       0.00000000
  1 983       0.00000000
  1 986       0.00000000
  1 987       0.00000000
  1 985       0.00000000
  1 984       0.00000000
  1 355       0.00000000
  1 484       0.00000000
  1 485       0.00000000
  1 486       0.00000000
  1 357       0.00000000
  1 354       0.00000000
  1 423       0.00000000
  1 425       0.00000000
  1 796       0.00000000
  1 866       0.00000000
  1 864       0.00000000
  1 928       0.00000000
  1 797       0.00000000
  1 799       0.00000000
  1 798       0.00000000
  1 865       0.00000000
  1 926       0.00000000
  1 990       0.00000000
  1 1051       0.00000000
  1 1054       0.00000000
  1 1050       0.00000000
  1 989       0.00000000
  1 1056       0.00000000
  1 991       0.00000000
  1 988       0.00000000
END period  1

