BEGIN options
  XORIGIN  6.60000000E+05
  YORIGIN  6.15000000E+06
END options

BEGIN dimensions
  NLAY  1
  NCPL  7825
  NVERT  9135
END dimensions

BEGIN griddata
  top
    CONSTANT      50.00000000
  botm
    CONSTANT     -50.00000000
END griddata

BEGIN vertices
  1  7.00500000E+05  6.20000000E+06
  2  7.01000000E+05  6.20000000E+06
  3  7.01000000E+05  6.19950000E+06
  4  7.00500000E+05  6.19950000E+06
  5  7.01500000E+05  6.20000000E+06
  6  7.01500000E+05  6.19950000E+06
  7  7.02000000E+05  6.20000000E+06
  8  7.02500000E+05  6.20000000E+06
  9  7.02500000E+05  6.19950000E+06
  10  7.02000000E+05  6.19950000E+06
  11  7.03000000E+05  6.20000000E+06
  12  7.03000000E+05  6.19950000E+06
  13  7.03500000E+05  6.20000000E+06
  14  7.03500000E+05  6.19950000E+06
  15  7.04000000E+05  6.20000000E+06
  16  7.04000000E+05  6.19950000E+06
  17  7.04500000E+05  6.20000000E+06
  18  7.04500000E+05  6.19950000E+06
  19  7.05000000E+05  6.20000000E+06
  20  7.05000000E+05  6.19950000E+06
  21  7.00000000E+05  6.19950000E+06
  22  7.00500000E+05  6.19900000E+06
  23  7.00000000E+05  6.19900000E+06
  24  7.01000000E+05  6.19900000E+06
  25  7.01500000E+05  6.19900000E+06
  26  7.02000000E+05  6.19900000E+06
  27  7.02500000E+05  6.19900000E+06
  28  7.03000000E+05  6.19900000E+06
  29  7.03500000E+05  6.19900000E+06
  30  7.04000000E+05  6.19900000E+06
  31  7.04500000E+05  6.19900000E+06
  32  7.00500000E+05  6.19850000E+06
  33  7.00000000E+05  6.19850000E+06
  34  7.01000000E+05  6.19850000E+06
  35  7.01500000E+05  6.19850000E+06
  36  7.02000000E+05  6.19850000E+06
  37  7.02500000E+05  6.19850000E+06
  38  7.03000000E+05  6.19850000E+06
  39  7.03500000E+05  6.19850000E+06
  40  7.04000000E+05  6.19850000E+06
  41  7.04500000E+05  6.19850000E+06
  42  7.00500000E+05  6.19800000E+06
  43  7.00000000E+05  6.19800000E+06
  44  7.01000000E+05  6.19800000E+06
  45  7.01500000E+05  6.19800000E+06
  46  7.02000000E+05  6.19800000E+06
  47  7.02500000E+05  6.19800000E+06
  48  7.03000000E+05  6.19800000E+06
  49  7.03500000E+05  6.19800000E+06
  50  7.04000000E+05  6.19800000E+06
  51  7.04500000E+05  6.19800000E+06
  52  7.00500000E+05  6.19750000E+06
  53  7.00000000E+05  6.19750000E+06
  54  7.01000000E+05  6.19750000E+06
  55  7.01500000E+05  6.19750000E+06
  56  7.02000000E+05  6.19750000E+06
  57  7.02500000E+05  6.19750000E+06
  58  7.03000000E+05  6.19750000E+06
  59  7.03500000E+05  6.19750000E+06
  60  7.04000000E+05  6.19750000E+06
  61  7.04500000E+05  6.19750000E+06
  62  6.99500000E+05  6.19750000E+06
  63  7.00000000E+05  6.19700000E+06
  64  6.99500000E+05  6.19700000E+06
  65  7.00500000E+05  6.19700000E+06
  66  7.01000000E+05  6.19700000E+06
  67  7.01500000E+05  6.19700000E+06
  68  7.02000000E+05  6.19700000E+06
  69  7.02500000E+05  6.19700000E+06
  70  7.03000000E+05  6.19700000E+06
  71  7.03500000E+05  6.19700000E+06
  72  7.04000000E+05  6.19700000E+06
  73  7.04500000E+05  6.19700000E+06
  74  6.99000000E+05  6.19700000E+06
  75  6.99500000E+05  6.19650000E+06
  76  6.99000000E+05  6.19650000E+06
  77  7.00000000E+05  6.19650000E+06
  78  7.00500000E+05  6.19650000E+06
  79  7.01000000E+05  6.19650000E+06
  80  7.01500000E+05  6.19650000E+06
  81  7.02000000E+05  6.19650000E+06
  82  7.02500000E+05  6.19650000E+06
  83  7.03000000E+05  6.19650000E+06
  84  7.03500000E+05  6.19650000E+06
  85  7.04000000E+05  6.19650000E+06
  86  7.04500000E+05  6.19650000E+06
  87  6.98000000E+05  6.19650000E+06
  88  6.98500000E+05  6.19650000E+06
  89  6.98500000E+05  6.19600000E+06
  90  6.98000000E+05  6.19600000E+06
  91  6.99000000E+05  6.19600000E+06
  92  6.99500000E+05  6.19600000E+06
  93  7.00000000E+05  6.19600000E+06
  94  7.00500000E+05  6.19600000E+06
  95  7.01000000E+05  6.19600000E+06
  96  7.01500000E+05  6.19600000E+06
  97  7.02000000E+05  6.19600000E+06
  98  7.02500000E+05  6.19600000E+06
  99  7.03000000E+05  6.19600000E+06
  100  7.03500000E+05  6.19600000E+06
  101  7.04000000E+05  6.19600000E+06
  102  6.97000000E+05  6.19600000E+06
  103  6.97500000E+05  6.19600000E+06
  104  6.97500000E+05  6.19550000E+06
  105  6.97000000E+05  6.19550000E+06
  106  6.98000000E+05  6.19550000E+06
  107  6.98500000E+05  6.19550000E+06
  108  6.99000000E+05  6.19550000E+06
  109  6.99500000E+05  6.19550000E+06
  110  7.00000000E+05  6.19550000E+06
  111  7.00500000E+05  6.19550000E+06
  112  7.01000000E+05  6.19550000E+06
  113  7.01500000E+05  6.19550000E+06
  114  7.02000000E+05  6.19550000E+06
  115  7.02500000E+05  6.19550000E+06
  116  7.03000000E+05  6.19550000E+06
  117  7.03500000E+05  6.19550000E+06
  118  7.04000000E+05  6.19550000E+06
  119  6.95500000E+05  6.19550000E+06
  120  6.96000000E+05  6.19550000E+06
  121  6.96000000E+05  6.19500000E+06
  122  6.95500000E+05  6.19500000E+06
  123  6.96500000E+05  6.19550000E+06
  124  6.96500000E+05  6.19500000E+06
  125  6.97000000E+05  6.19500000E+06
  126  6.97500000E+05  6.19500000E+06
  127  6.98000000E+05  6.19500000E+06
  128  6.98500000E+05  6.19500000E+06
  129  6.99000000E+05  6.19500000E+06
  130  6.99500000E+05  6.19500000E+06
  131  7.00000000E+05  6.19500000E+06
  132  7.00500000E+05  6.19500000E+06
  133  7.01000000E+05  6.19500000E+06
  134  7.01500000E+05  6.19500000E+06
  135  7.02000000E+05  6.19500000E+06
  136  7.02500000E+05  6.19500000E+06
  137  7.03000000E+05  6.19500000E+06
  138  7.03500000E+05  6.19500000E+06
  139  7.04000000E+05  6.19500000E+06
  140  6.94500000E+05  6.19500000E+06
  141  6.95000000E+05  6.19500000E+06
  142  6.95000000E+05  6.19450000E+06
  143  6.94500000E+05  6.19450000E+06
  144  6.95500000E+05  6.19450000E+06
  145  6.96000000E+05  6.19450000E+06
  146  6.96500000E+05  6.19450000E+06
  147  6.97000000E+05  6.19450000E+06
  148  6.97500000E+05  6.19450000E+06
  149  6.98000000E+05  6.19450000E+06
  150  6.98500000E+05  6.19450000E+06
  151  6.99000000E+05  6.19450000E+06
  152  6.99500000E+05  6.19450000E+06
  153  7.00000000E+05  6.19450000E+06
  154  7.00500000E+05  6.19450000E+06
  155  7.01000000E+05  6.19450000E+06
  156  7.01500000E+05  6.19450000E+06
  157  7.02000000E+05  6.19450000E+06
  158  7.02500000E+05  6.19450000E+06
  159  7.03000000E+05  6.19450000E+06
  160  7.03500000E+05  6.19450000E+06
  161  7.04000000E+05  6.19450000E+06
  162  6.93500000E+05  6.19450000E+06
  163  6.94000000E+05  6.19450000E+06
  164  6.94000000E+05  6.19400000E+06
  165  6.93500000E+05  6.19400000E+06
  166  6.94500000E+05  6.19400000E+06
  167  6.95000000E+05  6.19400000E+06
  168  6.95500000E+05  6.19400000E+06
  169  6.96000000E+05  6.19400000E+06
  170  6.96500000E+05  6.19400000E+06
  171  6.97000000E+05  6.19400000E+06
  172  6.97500000E+05  6.19400000E+06
  173  6.98000000E+05  6.19400000E+06
  174  6.98500000E+05  6.19400000E+06
  175  6.99000000E+05  6.19400000E+06
  176  6.99500000E+05  6.19400000E+06
  177  7.00000000E+05  6.19400000E+06
  178  7.00500000E+05  6.19400000E+06
  179  7.01000000E+05  6.19400000E+06
  180  7.01500000E+05  6.19400000E+06
  181  7.02000000E+05  6.19400000E+06
  182  7.02500000E+05  6.19400000E+06
  183  7.03000000E+05  6.19400000E+06
  184  7.03500000E+05  6.19400000E+06
  185  7.04000000E+05  6.19400000E+06
  186  6.94000000E+05  6.19350000E+06
  187  6.93500000E+05  6.19350000E+06
  188  6.94500000E+05  6.19350000E+06
  189  6.95000000E+05  6.19350000E+06
  190  6.95500000E+05  6.19350000E+06
  191  6.96000000E+05  6.19350000E+06
  192  6.96500000E+05  6.19350000E+06
  193  6.97000000E+05  6.19350000E+06
  194  6.97500000E+05  6.19350000E+06
  195  6.98000000E+05  6.19350000E+06
  196  6.98500000E+05  6.19350000E+06
  197  6.99000000E+05  6.19350000E+06
  198  6.99500000E+05  6.19350000E+06
  199  7.00000000E+05  6.19350000E+06
  200  7.00500000E+05  6.19350000E+06
  201  7.01000000E+05  6.19350000E+06
  202  7.01500000E+05  6.19350000E+06
  203  7.02000000E+05  6.19350000E+06
  204  7.02500000E+05  6.19350000E+06
  205  7.03000000E+05  6.19350000E+06
  206  7.03500000E+05  6.19350000E+06
  207  7.04000000E+05  6.19350000E+06
  208  6.93000000E+05  6.19350000E+06
  209  6.93500000E+05  6.19300000E+06
  210  6.93000000E+05  6.19300000E+06
  211  6.94000000E+05  6.19300000E+06
  212  6.94500000E+05  6.19300000E+06
  213  6.95000000E+05  6.19300000E+06
  214  6.95500000E+05  6.19300000E+06
  215  6.96000000E+05  6.19300000E+06
  216  6.96500000E+05  6.19300000E+06
  217  6.97000000E+05  6.19300000E+06
  218  6.97500000E+05  6.19300000E+06
  219  6.98000000E+05  6.19300000E+06
  220  6.98500000E+05  6.19300000E+06
  221  6.99000000E+05  6.19300000E+06
  222  6.99500000E+05  6.19300000E+06
  223  7.00000000E+05  6.19300000E+06
  224  7.00500000E+05  6.19300000E+06
  225  7.01000000E+05  6.19300000E+06
  226  7.01500000E+05  6.19300000E+06
  227  7.02000000E+05  6.19300000E+06
  228  7.02500000E+05  6.19300000E+06
  229  7.03000000E+05  6.19300000E+06
  230  7.03500000E+05  6.19300000E+06
  231  7.04000000E+05  6.19300000E+06
  232  6.92500000E+05  6.19300000E+06
  233  6.93000000E+05  6.19250000E+06
  234  6.92500000E+05  6.19250000E+06
  235  6.93500000E+05  6.19250000E+06
  236  6.94000000E+05  6.19250000E+06
  237  6.94500000E+05  6.19250000E+06
  238  6.95000000E+05  6.19250000E+06
  239  6.95500000E+05  6.19250000E+06
  240  6.96000000E+05  6.19250000E+06
  241  6.96500000E+05  6.19250000E+06
  242  6.97000000E+05  6.19250000E+06
  243  6.97500000E+05  6.19250000E+06
  244  6.98000000E+05  6.19250000E+06
  245  6.98500000E+05  6.19250000E+06
  246  6.99000000E+05  6.19250000E+06
  247  6.99500000E+05  6.19250000E+06
  248  7.00000000E+05  6.19250000E+06
  249  7.00500000E+05  6.19250000E+06
  250  7.01000000E+05  6.19250000E+06
  251  7.01500000E+05  6.19250000E+06
  252  7.02000000E+05  6.19250000E+06
  253  7.02500000E+05  6.19250000E+06
  254  7.03000000E+05  6.19250000E+06
  255  7.03500000E+05  6.19250000E+06
  256  7.04000000E+05  6.19250000E+06
  257  6.91500000E+05  6.19250000E+06
  258  6.92000000E+05  6.19250000E+06
  259  6.92000000E+05  6.19200000E+06
  260  6.91500000E+05  6.19200000E+06
  261  6.92500000E+05  6.19200000E+06
  262  6.93000000E+05  6.19200000E+06
  263  6.93500000E+05  6.19200000E+06
  264  6.94000000E+05  6.19200000E+06
  265  6.94500000E+05  6.19200000E+06
  266  6.95000000E+05  6.19200000E+06
  267  6.95500000E+05  6.19200000E+06
  268  6.96000000E+05  6.19200000E+06
  269  6.96500000E+05  6.19200000E+06
  270  6.97000000E+05  6.19200000E+06
  271  6.97500000E+05  6.19200000E+06
  272  6.98000000E+05  6.19200000E+06
  273  6.98500000E+05  6.19200000E+06
  274  6.99000000E+05  6.19200000E+06
  275  6.99500000E+05  6.19200000E+06
  276  7.00000000E+05  6.19200000E+06
  277  7.00500000E+05  6.19200000E+06
  278  7.01000000E+05  6.19200000E+06
  279  7.01500000E+05  6.19200000E+06
  280  7.02000000E+05  6.19200000E+06
  281  7.02500000E+05  6.19200000E+06
  282  7.03000000E+05  6.19200000E+06
  283  7.03500000E+05  6.19200000E+06
  284  6.92000000E+05  6.19150000E+06
  285  6.91500000E+05  6.19150000E+06
  286  6.92500000E+05  6.19150000E+06
  287  6.93000000E+05  6.19150000E+06
  288  6.93500000E+05  6.19150000E+06
  289  6.94000000E+05  6.19150000E+06
  290  6.94500000E+05  6.19150000E+06
  291  6.95000000E+05  6.19150000E+06
  292  6.95500000E+05  6.19150000E+06
  293  6.96000000E+05  6.19150000E+06
  294  6.96500000E+05  6.19150000E+06
  295  6.97000000E+05  6.19150000E+06
  296  6.97500000E+05  6.19150000E+06
  297  6.98000000E+05  6.19150000E+06
  298  6.98500000E+05  6.19150000E+06
  299  6.99000000E+05  6.19150000E+06
  300  6.99500000E+05  6.19150000E+06
  301  7.00000000E+05  6.19150000E+06
  302  7.00500000E+05  6.19150000E+06
  303  7.01000000E+05  6.19150000E+06
  304  7.01500000E+05  6.19150000E+06
  305  7.02000000E+05  6.19150000E+06
  306  7.02500000E+05  6.19150000E+06
  307  7.03000000E+05  6.19150000E+06
  308  7.03500000E+05  6.19150000E+06
  309  6.92500000E+05  6.19100000E+06
  310  6.92000000E+05  6.19100000E+06
  311  6.93000000E+05  6.19100000E+06
  312  6.93500000E+05  6.19100000E+06
  313  6.94000000E+05  6.19100000E+06
  314  6.94500000E+05  6.19100000E+06
  315  6.95000000E+05  6.19100000E+06
  316  6.95500000E+05  6.19100000E+06
  317  6.96000000E+05  6.19100000E+06
  318  6.96500000E+05  6.19100000E+06
  319  6.97000000E+05  6.19100000E+06
  320  6.97500000E+05  6.19100000E+06
  321  6.98000000E+05  6.19100000E+06
  322  6.98500000E+05  6.19100000E+06
  323  6.99000000E+05  6.19100000E+06
  324  6.99500000E+05  6.19100000E+06
  325  7.00000000E+05  6.19100000E+06
  326  7.00500000E+05  6.19100000E+06
  327  7.01000000E+05  6.19100000E+06
  328  7.01500000E+05  6.19100000E+06
  329  7.02000000E+05  6.19100000E+06
  330  7.02500000E+05  6.19100000E+06
  331  7.03000000E+05  6.19100000E+06
  332  7.03500000E+05  6.19100000E+06
  333  6.91500000E+05  6.19100000E+06
  334  6.92000000E+05  6.19050000E+06
  335  6.91500000E+05  6.19050000E+06
  336  6.92500000E+05  6.19050000E+06
  337  6.93000000E+05  6.19050000E+06
  338  6.93500000E+05  6.19050000E+06
  339  6.94000000E+05  6.19050000E+06
  340  6.94500000E+05  6.19050000E+06
  341  6.95000000E+05  6.19050000E+06
  342  6.95500000E+05  6.19050000E+06
  343  6.96000000E+05  6.19050000E+06
  344  6.96500000E+05  6.19050000E+06
  345  6.97000000E+05  6.19050000E+06
  346  6.97500000E+05  6.19050000E+06
  347  6.98000000E+05  6.19050000E+06
  348  6.98500000E+05  6.19050000E+06
  349  6.99000000E+05  6.19050000E+06
  350  6.99500000E+05  6.19050000E+06
  351  7.00000000E+05  6.19050000E+06
  352  7.00500000E+05  6.19050000E+06
  353  7.01000000E+05  6.19050000E+06
  354  7.01500000E+05  6.19050000E+06
  355  7.02000000E+05  6.19050000E+06
  356  7.02500000E+05  6.19050000E+06
  357  7.03000000E+05  6.19050000E+06
  358  7.03500000E+05  6.19050000E+06
  359  6.86000000E+05  6.19050000E+06
  360  6.86500000E+05  6.19050000E+06
  361  6.86500000E+05  6.19000000E+06
  362  6.86000000E+05  6.19000000E+06
  363  6.87000000E+05  6.19050000E+06
  364  6.87000000E+05  6.19000000E+06
  365  6.87500000E+05  6.19050000E+06
  366  6.87500000E+05  6.19000000E+06
  367  6.88000000E+05  6.19050000E+06
  368  6.88000000E+05  6.19000000E+06
  369  6.88500000E+05  6.19050000E+06
  370  6.88500000E+05  6.19000000E+06
  371  6.89000000E+05  6.19050000E+06
  372  6.89000000E+05  6.19000000E+06
  373  6.89500000E+05  6.19050000E+06
  374  6.89500000E+05  6.19000000E+06
  375  6.90000000E+05  6.19050000E+06
  376  6.90000000E+05  6.19000000E+06
  377  6.90500000E+05  6.19050000E+06
  378  6.90500000E+05  6.19000000E+06
  379  6.91000000E+05  6.19050000E+06
  380  6.91000000E+05  6.19000000E+06
  381  6.91500000E+05  6.19000000E+06
  382  6.92000000E+05  6.19000000E+06
  383  6.92500000E+05  6.19000000E+06
  384  6.93000000E+05  6.19000000E+06
  385  6.93500000E+05  6.19000000E+06
  386  6.94000000E+05  6.19000000E+06
  387  6.94500000E+05  6.19000000E+06
  388  6.95000000E+05  6.19000000E+06
  389  6.95500000E+05  6.19000000E+06
  390  6.96000000E+05  6.19000000E+06
  391  6.96500000E+05  6.19000000E+06
  392  6.97000000E+05  6.19000000E+06
  393  6.97500000E+05  6.19000000E+06
  394  6.98000000E+05  6.19000000E+06
  395  6.98500000E+05  6.19000000E+06
  396  6.99000000E+05  6.19000000E+06
  397  6.99500000E+05  6.19000000E+06
  398  7.00000000E+05  6.19000000E+06
  399  7.00500000E+05  6.19000000E+06
  400  7.01000000E+05  6.19000000E+06
  401  7.01500000E+05  6.19000000E+06
  402  7.02000000E+05  6.19000000E+06
  403  7.02500000E+05  6.19000000E+06
  404  7.03000000E+05  6.19000000E+06
  405  7.03500000E+05  6.19000000E+06
  406  6.86500000E+05  6.18950000E+06
  407  6.86000000E+05  6.18950000E+06
  408  6.87000000E+05  6.18950000E+06
  409  6.87500000E+05  6.18950000E+06
  410  6.88000000E+05  6.18950000E+06
  411  6.88500000E+05  6.18950000E+06
  412  6.89000000E+05  6.18950000E+06
  413  6.89500000E+05  6.18950000E+06
  414  6.90000000E+05  6.18950000E+06
  415  6.90500000E+05  6.18950000E+06
  416  6.91000000E+05  6.18950000E+06
  417  6.91500000E+05  6.18950000E+06
  418  6.92000000E+05  6.18950000E+06
  419  6.92500000E+05  6.18950000E+06
  420  6.93000000E+05  6.18950000E+06
  421  6.93500000E+05  6.18950000E+06
  422  6.94000000E+05  6.18950000E+06
  423  6.94500000E+05  6.18950000E+06
  424  6.95000000E+05  6.18950000E+06
  425  6.95500000E+05  6.18950000E+06
  426  6.96000000E+05  6.18950000E+06
  427  6.96500000E+05  6.18950000E+06
  428  6.97000000E+05  6.18950000E+06
  429  6.97500000E+05  6.18950000E+06
  430  6.98000000E+05  6.18950000E+06
  431  6.98500000E+05  6.18950000E+06
  432  6.99000000E+05  6.18950000E+06
  433  6.99500000E+05  6.18950000E+06
  434  7.00000000E+05  6.18950000E+06
  435  7.00500000E+05  6.18950000E+06
  436  7.01000000E+05  6.18950000E+06
  437  7.01500000E+05  6.18950000E+06
  438  7.02000000E+05  6.18950000E+06
  439  7.02500000E+05  6.18950000E+06
  440  7.03000000E+05  6.18950000E+06
  441  7.03500000E+05  6.18950000E+06
  442  6.87000000E+05  6.18900000E+06
  443  6.86500000E+05  6.18900000E+06
  444  6.87500000E+05  6.18900000E+06
  445  6.88000000E+05  6.18900000E+06
  446  6.88500000E+05  6.18900000E+06
  447  6.89000000E+05  6.18900000E+06
  448  6.89500000E+05  6.18900000E+06
  449  6.90000000E+05  6.18900000E+06
  450  6.90500000E+05  6.18900000E+06
  451  6.91000000E+05  6.18900000E+06
  452  6.91500000E+05  6.18900000E+06
  453  6.92000000E+05  6.18900000E+06
  454  6.92500000E+05  6.18900000E+06
  455  6.93000000E+05  6.18900000E+06
  456  6.93500000E+05  6.18900000E+06
  457  6.94000000E+05  6.18900000E+06
  458  6.94500000E+05  6.18900000E+06
  459  6.95000000E+05  6.18900000E+06
  460  6.95500000E+05  6.18900000E+06
  461  6.96000000E+05  6.18900000E+06
  462  6.96500000E+05  6.18900000E+06
  463  6.97000000E+05  6.18900000E+06
  464  6.97500000E+05  6.18900000E+06
  465  6.98000000E+05  6.18900000E+06
  466  6.98500000E+05  6.18900000E+06
  467  6.99000000E+05  6.18900000E+06
  468  6.99500000E+05  6.18900000E+06
  469  7.00000000E+05  6.18900000E+06
  470  7.00500000E+05  6.18900000E+06
  471  7.01000000E+05  6.18900000E+06
  472  7.01500000E+05  6.18900000E+06
  473  7.02000000E+05  6.18900000E+06
  474  7.02500000E+05  6.18900000E+06
  475  7.03000000E+05  6.18900000E+06
  476  7.03500000E+05  6.18900000E+06
  477  6.87500000E+05  6.18850000E+06
  478  6.87000000E+05  6.18850000E+06
  479  6.88000000E+05  6.18850000E+06
  480  6.88500000E+05  6.18850000E+06
  481  6.89000000E+05  6.18850000E+06
  482  6.89500000E+05  6.18850000E+06
  483  6.90000000E+05  6.18850000E+06
  484  6.90500000E+05  6.18850000E+06
  485  6.91000000E+05  6.18850000E+06
  486  6.91500000E+05  6.18850000E+06
  487  6.92000000E+05  6.18850000E+06
  488  6.92500000E+05  6.18850000E+06
  489  6.93000000E+05  6.18850000E+06
  490  6.93500000E+05  6.18850000E+06
  491  6.94000000E+05  6.18850000E+06
  492  6.94500000E+05  6.18850000E+06
  493  6.95000000E+05  6.18850000E+06
  494  6.95500000E+05  6.18850000E+06
  495  6.96000000E+05  6.18850000E+06
  496  6.96500000E+05  6.18850000E+06
  497  6.97000000E+05  6.18850000E+06
  498  6.97500000E+05  6.18850000E+06
  499  6.98000000E+05  6.18850000E+06
  500  6.98500000E+05  6.18850000E+06
  501  6.99000000E+05  6.18850000E+06
  502  6.99500000E+05  6.18850000E+06
  503  7.00000000E+05  6.18850000E+06
  504  7.00500000E+05  6.18850000E+06
  505  7.01000000E+05  6.18850000E+06
  506  7.01500000E+05  6.18850000E+06
  507  7.02000000E+05  6.18850000E+06
  508  7.02500000E+05  6.18850000E+06
  509  7.03000000E+05  6.18850000E+06
  510  7.03500000E+05  6.18850000E+06
  511  6.86500000E+05  6.18850000E+06
  512  6.87000000E+05  6.18800000E+06
  513  6.86500000E+05  6.18800000E+06
  514  6.87500000E+05  6.18800000E+06
  515  6.88000000E+05  6.18800000E+06
  516  6.88500000E+05  6.18800000E+06
  517  6.89000000E+05  6.18800000E+06
  518  6.89500000E+05  6.18800000E+06
  519  6.90000000E+05  6.18800000E+06
  520  6.90500000E+05  6.18800000E+06
  521  6.91000000E+05  6.18800000E+06
  522  6.91500000E+05  6.18800000E+06
  523  6.92000000E+05  6.18800000E+06
  524  6.92500000E+05  6.18800000E+06
  525  6.93000000E+05  6.18800000E+06
  526  6.93500000E+05  6.18800000E+06
  527  6.94000000E+05  6.18800000E+06
  528  6.94500000E+05  6.18800000E+06
  529  6.95000000E+05  6.18800000E+06
  530  6.95500000E+05  6.18800000E+06
  531  6.96000000E+05  6.18800000E+06
  532  6.96500000E+05  6.18800000E+06
  533  6.97000000E+05  6.18800000E+06
  534  6.97500000E+05  6.18800000E+06
  535  6.98000000E+05  6.18800000E+06
  536  6.98500000E+05  6.18800000E+06
  537  6.99000000E+05  6.18800000E+06
  538  6.99500000E+05  6.18800000E+06
  539  7.00000000E+05  6.18800000E+06
  540  7.00500000E+05  6.18800000E+06
  541  7.01000000E+05  6.18800000E+06
  542  7.01500000E+05  6.18800000E+06
  543  7.02000000E+05  6.18800000E+06
  544  7.02500000E+05  6.18800000E+06
  545  7.03000000E+05  6.18800000E+06
  546  7.03500000E+05  6.18800000E+06
  547  6.86000000E+05  6.18800000E+06
  548  6.86500000E+05  6.18750000E+06
  549  6.86000000E+05  6.18750000E+06
  550  6.87000000E+05  6.18750000E+06
  551  6.87500000E+05  6.18750000E+06
  552  6.88000000E+05  6.18750000E+06
  553  6.88500000E+05  6.18750000E+06
  554  6.89000000E+05  6.18750000E+06
  555  6.89500000E+05  6.18750000E+06
  556  6.90000000E+05  6.18750000E+06
  557  6.90500000E+05  6.18750000E+06
  558  6.91000000E+05  6.18750000E+06
  559  6.91500000E+05  6.18750000E+06
  560  6.92000000E+05  6.18750000E+06
  561  6.92500000E+05  6.18750000E+06
  562  6.93000000E+05  6.18750000E+06
  563  6.93500000E+05  6.18750000E+06
  564  6.94000000E+05  6.18750000E+06
  565  6.94500000E+05  6.18750000E+06
  566  6.95000000E+05  6.18750000E+06
  567  6.95500000E+05  6.18750000E+06
  568  6.96000000E+05  6.18750000E+06
  569  6.96500000E+05  6.18750000E+06
  570  6.97000000E+05  6.18750000E+06
  571  6.97500000E+05  6.18750000E+06
  572  6.98000000E+05  6.18750000E+06
  573  6.98500000E+05  6.18750000E+06
  574  6.99000000E+05  6.18750000E+06
  575  6.99500000E+05  6.18750000E+06
  576  7.00000000E+05  6.18750000E+06
  577  7.00500000E+05  6.18750000E+06
  578  7.01000000E+05  6.18750000E+06
  579  7.01500000E+05  6.18750000E+06
  580  7.02000000E+05  6.18750000E+06
  581  7.02500000E+05  6.18750000E+06
  582  7.03000000E+05  6.18750000E+06
  583  7.03500000E+05  6.18750000E+06
  584  6.86250000E+05  6.18750000E+06
  585  6.86250000E+05  6.18725000E+06
  586  6.86000000E+05  6.18725000E+06
  587  6.86500000E+05  6.18725000E+06
  588  6.86250000E+05  6.18700000E+06
  589  6.86000000E+05  6.18700000E+06
  590  6.86500000E+05  6.18700000E+06
  591  6.86750000E+05  6.18750000E+06
  592  6.86750000E+05  6.18725000E+06
  593  6.87000000E+05  6.18725000E+06
  594  6.86750000E+05  6.18700000E+06
  595  6.87000000E+05  6.18700000E+06
  596  6.87250000E+05  6.18750000E+06
  597  6.87250000E+05  6.18725000E+06
  598  6.87500000E+05  6.18725000E+06
  599  6.87250000E+05  6.18700000E+06
  600  6.87500000E+05  6.18700000E+06
  601  6.88000000E+05  6.18700000E+06
  602  6.88500000E+05  6.18700000E+06
  603  6.89000000E+05  6.18700000E+06
  604  6.89500000E+05  6.18700000E+06
  605  6.90000000E+05  6.18700000E+06
  606  6.90500000E+05  6.18700000E+06
  607  6.91000000E+05  6.18700000E+06
  608  6.91500000E+05  6.18700000E+06
  609  6.92000000E+05  6.18700000E+06
  610  6.92500000E+05  6.18700000E+06
  611  6.93000000E+05  6.18700000E+06
  612  6.93500000E+05  6.18700000E+06
  613  6.94000000E+05  6.18700000E+06
  614  6.94500000E+05  6.18700000E+06
  615  6.95000000E+05  6.18700000E+06
  616  6.95500000E+05  6.18700000E+06
  617  6.96000000E+05  6.18700000E+06
  618  6.96500000E+05  6.18700000E+06
  619  6.97000000E+05  6.18700000E+06
  620  6.97500000E+05  6.18700000E+06
  621  6.98000000E+05  6.18700000E+06
  622  6.98500000E+05  6.18700000E+06
  623  6.99000000E+05  6.18700000E+06
  624  6.99500000E+05  6.18700000E+06
  625  7.00000000E+05  6.18700000E+06
  626  7.00500000E+05  6.18700000E+06
  627  7.01000000E+05  6.18700000E+06
  628  7.01500000E+05  6.18700000E+06
  629  7.02000000E+05  6.18700000E+06
  630  7.02500000E+05  6.18700000E+06
  631  7.03000000E+05  6.18700000E+06
  632  7.03500000E+05  6.18700000E+06
  633  6.85750000E+05  6.18700000E+06
  634  6.86000000E+05  6.18675000E+06
  635  6.85750000E+05  6.18675000E+06
  636  6.85500000E+05  6.18675000E+06
  637  6.85750000E+05  6.18650000E+06
  638  6.85500000E+05  6.18650000E+06
  639  6.86000000E+05  6.18650000E+06
  640  6.86125000E+05  6.18700000E+06
  641  6.86125000E+05  6.18687500E+06
  642  6.86000000E+05  6.18687500E+06
  643  6.86250000E+05  6.18687500E+06
  644  6.86125000E+05  6.18675000E+06
  645  6.86250000E+05  6.18675000E+06
  646  6.86375000E+05  6.18700000E+06
  647  6.86375000E+05  6.18687500E+06
  648  6.86500000E+05  6.18687500E+06
  649  6.86375000E+05  6.18675000E+06
  650  6.86500000E+05  6.18675000E+06
  651  6.86250000E+05  6.18650000E+06
  652  6.86500000E+05  6.18650000E+06
  653  6.86625000E+05  6.18700000E+06
  654  6.86625000E+05  6.18687500E+06
  655  6.86750000E+05  6.18687500E+06
  656  6.86625000E+05  6.18675000E+06
  657  6.86750000E+05  6.18675000E+06
  658  6.86875000E+05  6.18700000E+06
  659  6.86875000E+05  6.18687500E+06
  660  6.87000000E+05  6.18687500E+06
  661  6.86875000E+05  6.18675000E+06
  662  6.87000000E+05  6.18675000E+06
  663  6.86750000E+05  6.18650000E+06
  664  6.87000000E+05  6.18650000E+06
  665  6.87125000E+05  6.18700000E+06
  666  6.87125000E+05  6.18687500E+06
  667  6.87250000E+05  6.18687500E+06
  668  6.87125000E+05  6.18675000E+06
  669  6.87250000E+05  6.18675000E+06
  670  6.87500000E+05  6.18675000E+06
  671  6.87125000E+05  6.18662500E+06
  672  6.87000000E+05  6.18662500E+06
  673  6.87250000E+05  6.18662500E+06
  674  6.87125000E+05  6.18650000E+06
  675  6.87250000E+05  6.18650000E+06
  676  6.87500000E+05  6.18650000E+06
  677  6.88000000E+05  6.18650000E+06
  678  6.88500000E+05  6.18650000E+06
  679  6.89000000E+05  6.18650000E+06
  680  6.89500000E+05  6.18650000E+06
  681  6.90000000E+05  6.18650000E+06
  682  6.90500000E+05  6.18650000E+06
  683  6.91000000E+05  6.18650000E+06
  684  6.91500000E+05  6.18650000E+06
  685  6.92000000E+05  6.18650000E+06
  686  6.92500000E+05  6.18650000E+06
  687  6.93000000E+05  6.18650000E+06
  688  6.93500000E+05  6.18650000E+06
  689  6.94000000E+05  6.18650000E+06
  690  6.94500000E+05  6.18650000E+06
  691  6.95000000E+05  6.18650000E+06
  692  6.95500000E+05  6.18650000E+06
  693  6.96000000E+05  6.18650000E+06
  694  6.96500000E+05  6.18650000E+06
  695  6.97000000E+05  6.18650000E+06
  696  6.97500000E+05  6.18650000E+06
  697  6.98000000E+05  6.18650000E+06
  698  6.98500000E+05  6.18650000E+06
  699  6.99000000E+05  6.18650000E+06
  700  6.99500000E+05  6.18650000E+06
  701  7.00000000E+05  6.18650000E+06
  702  7.00500000E+05  6.18650000E+06
  703  7.01000000E+05  6.18650000E+06
  704  7.01500000E+05  6.18650000E+06
  705  7.02000000E+05  6.18650000E+06
  706  7.02250000E+05  6.18700000E+06
  707  7.02250000E+05  6.18675000E+06
  708  7.02000000E+05  6.18675000E+06
  709  7.02500000E+05  6.18675000E+06
  710  7.02250000E+05  6.18650000E+06
  711  7.02500000E+05  6.18650000E+06
  712  7.02750000E+05  6.18700000E+06
  713  7.02750000E+05  6.18675000E+06
  714  7.03000000E+05  6.18675000E+06
  715  7.02625000E+05  6.18675000E+06
  716  7.02625000E+05  6.18662500E+06
  717  7.02500000E+05  6.18662500E+06
  718  7.02750000E+05  6.18662500E+06
  719  7.02625000E+05  6.18650000E+06
  720  7.02750000E+05  6.18650000E+06
  721  7.02875000E+05  6.18675000E+06
  722  7.02875000E+05  6.18662500E+06
  723  7.03000000E+05  6.18662500E+06
  724  7.02875000E+05  6.18650000E+06
  725  7.03000000E+05  6.18650000E+06
  726  7.03250000E+05  6.18700000E+06
  727  7.03250000E+05  6.18675000E+06
  728  7.03125000E+05  6.18675000E+06
  729  7.03125000E+05  6.18662500E+06
  730  7.03250000E+05  6.18662500E+06
  731  7.03125000E+05  6.18650000E+06
  732  7.03250000E+05  6.18650000E+06
  733  6.85000000E+05  6.18650000E+06
  734  6.85500000E+05  6.18600000E+06
  735  6.85000000E+05  6.18600000E+06
  736  6.86000000E+05  6.18600000E+06
  737  6.86500000E+05  6.18600000E+06
  738  6.86750000E+05  6.18625000E+06
  739  6.86500000E+05  6.18625000E+06
  740  6.87000000E+05  6.18625000E+06
  741  6.86750000E+05  6.18600000E+06
  742  6.87000000E+05  6.18600000E+06
  743  6.87125000E+05  6.18637500E+06
  744  6.87000000E+05  6.18637500E+06
  745  6.87250000E+05  6.18637500E+06
  746  6.87125000E+05  6.18625000E+06
  747  6.87250000E+05  6.18625000E+06
  748  6.87375000E+05  6.18650000E+06
  749  6.87375000E+05  6.18637500E+06
  750  6.87500000E+05  6.18637500E+06
  751  6.87375000E+05  6.18625000E+06
  752  6.87500000E+05  6.18625000E+06
  753  6.87250000E+05  6.18600000E+06
  754  6.87375000E+05  6.18612500E+06
  755  6.87250000E+05  6.18612500E+06
  756  6.87500000E+05  6.18612500E+06
  757  6.87375000E+05  6.18600000E+06
  758  6.87500000E+05  6.18600000E+06
  759  6.87750000E+05  6.18650000E+06
  760  6.87750000E+05  6.18625000E+06
  761  6.88000000E+05  6.18625000E+06
  762  6.87750000E+05  6.18600000E+06
  763  6.88000000E+05  6.18600000E+06
  764  6.88250000E+05  6.18650000E+06
  765  6.88250000E+05  6.18625000E+06
  766  6.88500000E+05  6.18625000E+06
  767  6.88125000E+05  6.18625000E+06
  768  6.88125000E+05  6.18612500E+06
  769  6.88000000E+05  6.18612500E+06
  770  6.88250000E+05  6.18612500E+06
  771  6.88125000E+05  6.18600000E+06
  772  6.88250000E+05  6.18600000E+06
  773  6.88375000E+05  6.18625000E+06
  774  6.88375000E+05  6.18612500E+06
  775  6.88500000E+05  6.18612500E+06
  776  6.88375000E+05  6.18600000E+06
  777  6.88500000E+05  6.18600000E+06
  778  6.88750000E+05  6.18650000E+06
  779  6.88750000E+05  6.18625000E+06
  780  6.89000000E+05  6.18625000E+06
  781  6.88625000E+05  6.18625000E+06
  782  6.88625000E+05  6.18612500E+06
  783  6.88750000E+05  6.18612500E+06
  784  6.88625000E+05  6.18600000E+06
  785  6.88750000E+05  6.18600000E+06