BEGIN options
  SAVE_FLOWS
  XT3D
  SAVE_SPECIFIC_DISCHARGE
END options

BEGIN griddata
  icelltype
    CONSTANT  0
  k
    CONSTANT  5.00000000E-05
END griddata

