BEGIN MODFLOW_GRID basegrid
	ROTATION_ANGLE = 0
	X_OFFSET = 660000
	Y_OFFSET = 6150000
	LENGTH_UNIT = undefined
	NLAY = 1
	NROW = 100
	NCOL = 100
	DELR =  CONSTANT 500.0
	DELC =  CONSTANT 500.0
	TOP =  CONSTANT 50.0
	BOTTOM LAYER 1 =  CONSTANT -50.0
END MODFLOW_GRID

BEGIN QUADTREE quadtreegrid
	MODFLOW_GRID = basegrid
	STRUCTURE_File  = OPEN/CLOSE quadtreegrid.tsf
	TOP LAYER 1 = OPEN/CLOSE quadtreegrid.top1.dat
	BOTTOM LAYER 1 = OPEN/CLOSE quadtreegrid.bot1.dat
END QUADTREE
