BEGIN options
  SAVE_FLOWS
END options

BEGIN dimensions
  MAXBOUND  469
END dimensions

BEGIN period  1
  1 27475     123.92449596
  1 27478     123.71109460
  1 27477     123.42269684
  1 27476     123.23782152
  1 27484     123.02781738
  1 27479     122.82352696
  1 27487     122.62371426
  1 27767     122.26286933
  1 27489     121.95977558
  1 27490     121.77857347
  1 27770     121.54256570
  1 27771     121.20286842
  1 27777     120.85826813
  1 27776     120.51229737
  1 27500     120.09284287
  1 27780     119.82890344
  1 27496     119.57607531
  1 27501     119.33923068
  1 27499     118.73261526
  1 27504     118.16119851
  1 27507     117.58410832
  1 27509     116.99956852
  1 27787     116.44507723
  1 27786     116.14044297
  1 27789     115.85354256
  1 27793     115.35706592
  1 27792     114.82147506
  1 27801     114.39425892
  1 27798     113.83621706
  1 27806     113.28027984
  1 27802     112.50775733
  1 27805     111.74702088
  1 27813     111.06903154
  1 27811     110.68164023
  1 27817     110.17236376
  1 27814     108.74985397
  1 28158     108.29950230
  1 27818     108.01776703
  1 28163     107.67484629
  1 28164     107.16299867
  1 28173     106.81411288
  1 28167     106.46278657
  1 28168     105.95699252
  1 27830     105.39843057
  1 27829     104.76715081
  1 27828     104.36965051
  1 27826     103.76164396
  1 27832     103.36119955
  1 27833     102.79574524
  1 27844     101.99148014
  1 27845     101.21183207
  1 27842     100.39557995
  1 27839      99.90523353
  1 27850      99.00000000
  1 27843      99.00000000
  1 27849      99.00000000
  1 27851      99.00000000
  1 27531      99.00000000
  1 27853      99.00000000
  1 27532      99.00000000
  1 27859      98.45546321
  1 27537      97.83869228
  1 27860      97.15659925
  1 27541      95.93963576
  1 27538      95.32080843
  1 27551      93.81131180
  1 27542      93.45021331
  1 27550      93.10539270
  1 27552      92.77837893
  1 27549      92.59132433
  1 27546      92.42922063
  1 27558      92.12885596
  1 27547      91.78746008
  1 27559      91.44573262
  1 27562      91.08379964
  1 27561      90.76892649
  1 27563      90.55209426
  1 27566      90.34709496
  1 27297      90.01384952
  1 27298      89.60511265
  1 27299      89.40131615
  1 27294      88.65293316
  1 27300      88.23074987
  1 27071      88.06362408
  1 27295      87.84405015
  1 27073      87.41372582
  1 27293      86.84097180
  1 27072      86.38858105
  1 27304      85.99102262
  1 27075      85.67458406
  1 27074      85.20829680
  1 27080      84.76719207
  1 27069      83.72619065
  1 27079      83.23778771
  1 27078      82.79568285
  1 26849      82.28268628
  1 26847      81.89123229
  1 26848      81.65672630
  1 26850      81.30029858
  1 26854      80.82796792
  1 26860      80.56469986
  1 26858      80.29175840
  1 26855      79.78429620
  1 26865      78.84060698
  1 26859      78.66335035
  1 26857      78.49966111
  1 26651      78.34415207
  1 26866      78.18868087
  1 26652      78.03228212
  1 26869      77.85299334
  1 26872      77.52865036
  1 26870      77.34522034
  1 26883      77.24178011
  1 26877      77.08690904
  1 26881      76.89719702
  1 26880      76.67288418
  1 26887      76.49652849
  1 26886      76.26732404
  1 27100      76.06528731
  1 27092      75.93355024
  1 27098      75.71528201
  1 27097      75.43462334
  1 27103      75.12932238
  1 27107      74.80815834
  1 27104      74.61527130
  1 27102      74.46185288
  1 26900      74.18421749
  1 26899      73.93346406
  1 26898      73.39517266
  1 26895      72.44775376
  1 26673      71.54992520
  1 26893      70.64713450
  1 26670      70.07167741
  1 26665      69.00000000
  1 26671      69.00000000
  1 26664      69.00000000
  1 26663      69.00000000
  1 26457      69.00000000
  1 26459      69.00000000
  1 26454      69.00000000
  1 26462      69.00000000
  1 26159      69.00000000
  1 26460      69.00000000
  1 26160      69.00000000
  1 26158      68.49613208
  1 26155      67.56871432
  1 26152      67.06985797
  1 26156      66.57555072
  1 26167      65.92673183
  1 26164      65.49967724
  1 26168      64.85211395
  1 26173      64.00000000
  1 26171      64.00000000
  1 26174      64.00000000
  1 26182      64.00000000
  1 26181      64.00000000
  1 26183      64.00000000
  1 26178      64.00000000
  1 26184      64.00000000
  1 26176      64.00000000
  1 25876      64.00000000
  1 25875      63.91900194
  1 25874      63.56432991
  1 25873      62.81032706
  1 25631      61.47271665
  1 25870      58.83524515
  1 25633      58.50573545
  1 25868      58.22079081
  1 25865      58.05603596
  1 25635      57.86203368
  1 25634      57.56338317
  1 25643      57.30523413
  1 25640      57.03678332
  1 25374      56.72021816
  1 25638      56.45306784
  1 25627      56.29020955
  1 25372      56.08691184
  1 25369      55.78208181
  1 25375      55.52262126
  1 25367      55.35986511
  1 25132      55.25422869
  1 25134      55.03583915
  1 25133      54.75681985
  1 25130      54.49679514
  1 25128      53.79670771
  1 24872      53.39132372
  1 24869      53.10650609
  1 24880      52.84308327
  1 24873      52.51241094
  1 24879      52.18570448
  1 24871      51.98221766
  1 24883      51.78830987
  1 24651      51.44195044
  1 24877      51.07879039
  1 24653      50.71020119
  1 24878      50.52488078
  1 24876      50.33956037
  1 24648      50.08716303
  1 24654      49.82197026
  1 24656      49.50177878
  1 24447      48.86350984
  1 24655      48.69708638
  1 24443      48.54660183
  1 24450      48.37063022
  1 24449      48.24479804
  1 24448      48.05801504
  1 24452      47.81139716
  1 24454      47.64380878
  1 24210      47.46141100
  1 24217      47.17623381
  1 24216      46.94277642
  1 24215      46.80265532
  1 23990      46.67326981
  1 24208      46.56036050
  1 23993      46.38352284
  1 24211      46.12077313
  1 23995      45.99201777
  1 23994      45.84548855
  1 23998      45.64196532
  1 23996      45.44309620
  1 23776      45.18185555
  1 23766      44.91904733
  1 23774      44.72514861
  1 23769      44.59111904
  1 23538      44.38648884
  1 23764      43.54969749
  1 23547      42.50444664
  1 23536      41.83906570
  1 23542      41.21337327
  1 23541      40.64279502
  1 23540      40.30510659
  1 23332      38.79507542
  1 23543      38.52323330
  1 23326      38.31834303
  1 23330      37.99799854
  1 23328      37.60294423
  1 23331      37.35995089
  1 23334      37.21967235
  1 23123      36.97484969
  1 23124      36.61995587
  1 23131      36.19586598
  1 23127      35.97448718
  1 23120      35.84238669
  1 23125      35.51548784
  1 23126      35.18868037
  1 22906      34.82167911
  1 23129      34.53525173
  1 22905      34.48723273
  1 23130      33.88117623
  1 22907      33.63845872
  1 22904      33.50251019
  1 22663      33.39958496
  1 22917      33.29490680
  1 22913      33.26105468
  1 22911      33.12300853
  1 22910      32.89012346
  1 22912      32.75831405
  1 22664      32.64590994
  1 22679      32.45497823
  1 22669      32.26518211
  1 22674      32.07649718
  1 22670      31.88781226
  1 22673      31.69912733
  1 22683      31.50871407
  1 22680      31.31590782
  1 22684      31.12466585
  1 22692      30.93391165
  1 22693      30.73074796
  1 22694      30.50743838
  1 22696      30.38352611
  1 22699      30.33064100
  1 22695      30.25809256
  1 22698      30.13460575
  1 22689      29.93534377
  1 22700      29.79855200
  1 22434      29.68433294
  1 22431      29.53434446
  1 22432      29.40535509
  1 22438      29.24735729
  1 22433      28.91900803
  1 22427      28.78206792
  1 22440      28.69956704
  1 22436      28.65113037
  1 22437      28.50372281
  1 22171      28.26850323
  1 22172      28.04176216
  1 22173      27.89587588
  1 22178      27.76536653
  1 22182      27.60395136
  1 22180      27.52622087
  1 22176      27.44796015
  1 22177      27.26765878
  1 21871      27.03819111
  1 22179      26.81455682
  1 22187      26.69888007
  1 21875      26.60914648
  1 21872      26.41219682
  1 21874      26.19956213
  1 21873      26.07671238
  1 21880      25.95497184
  1 21879      25.74938008
  1 21889      25.54356858
  1 21883      25.33757855
  1 21884      25.13168491
  1 21893      24.92576088
  1 21890      24.71947610
  1 21900      24.51345411
  1 21894      24.30805477
  1 21899      24.00000000
  1 21922      24.00000000
  1 21903      23.84046336
  1 21911      23.61350398
  1 21904      23.38654461
  1 21917      23.13489405
  1 21912      22.88324349
  1 21916      22.56417020
  1 21913      22.24509691
  1 21923      21.92459160
  1 22221      21.58176994
  1 21926      21.34865509
  1 22216      21.18964983
  1 21929      20.96313223
  1 21942      20.78206534
  1 21930      20.54973638
  1 21941      20.20966381
  1 21935      19.89783201
  1 21938      19.58600020
  1 21937      19.38772316
  1 22224      19.23914661
  1 22222      19.06078614
  1 22236      18.81629694
  1 22227      18.45403052
  1 22231      18.16700904
  1 22228      17.99120715
  1 22463      17.79781280
  1 22237      17.64824143
  1 22462      17.49417768
  1 22239      17.17854853
  1 22242      16.92644418
  1 22470      16.68719931
  1 22465      16.45692591
  1 22471      16.23050299
  1 22483      15.91364573
  1 22474      15.70150335
  1 22478      15.47123500
  1 22477      15.19339776
  1 22727      14.91613388
  1 22485      14.72642627
  1 22722      14.53048493
  1 22486      14.18042724
  1 22721      14.00357996
  1 22489      13.82855101
  1 22730      13.56065544
  1 22728      13.39440132
  1 22733      12.83565563
  1 22503      12.58578671
  1 22734      12.48849920
  1 22738      12.37715129
  1 22732      12.11596642
  1 22737      11.78100363
  1 22506      11.46554184
  1 22498      11.15921212
  1 22504      10.82967705
  1 22258      10.61751287
  1 22496      10.40961919
  1 22259      10.12938033
  1 22257       9.83238213
  1 22254       9.55061248
  1 22260       9.32897772
  1 22262       8.96007306
  1 21963       8.84834777
  1 22261       8.72544956
  1 21960       8.64854093
  1 21973       8.55429323
  1 21964       8.46977264
  1 21962       8.40109777
  1 21968       8.27576665
  1 21967       8.19955441
  1 21970       8.14916920
  1 21971       8.07103552
  1 21969       7.99382761
  1 21543       7.89713732
  1 21554       7.82520445
  1 21552       7.73166297
  1 21547       7.60432965
  1 21553       7.53152439
  1 21550       7.44956886
  1 21551       7.32391143
  1 21570       7.20149839
  1 21559       7.07972570
  1 21569       6.95803121
  1 21560       6.83633672
  1 21564       6.71464223
  1 21563       6.59294773
  1 21572       6.52500994
  1 21573       6.45699143
  1 21574       6.34018596
  1 21579       6.21319022
  1 21588       6.09994618
  1 21580       6.03666870
  1 21586       5.98172777
  1 21583       5.88866973
  1 21589       5.76369777
  1 21594       5.63637994
  1 21595       5.51375246
  1 21599       5.39119897
  1 21598       5.26861570
  1 21997       5.14589021
  1 21604       5.03213741
  1 21996       4.91804516
  1 21992       4.84607035
  1 21993       4.77409554
  1 22002       4.64990339
  1 22003       4.53519293
  1 21616       4.45264203
  1 21612       4.40485960
  1 21615       4.31543609
  1 21625       4.17586138
  1 21614       4.07001181
  1 21622       3.97268993
  1 21626       3.88440062
  1 21624       3.84228326
  1 21620       3.78811987
  1 21623       3.67734688
  1 21630       3.56636798
  1 21302       3.47544195
  1 21299       3.39939094
  1 21303       3.33966353
  1 21298       3.24996093
  1 21301       3.13988695
  1 21304       3.05501935
  1 21297       2.94929424
  1 20782       2.79498302
  1 21308       2.71414081
  1 20784       2.70356106
  1 21070       2.61562766
  1 20773       2.46784977
  1 21068       2.38225298
  1 21065       2.33889467
  1 21069       2.24974457
  1 21064       2.13596207
  1 21063       2.05036536
  1 21066       1.97179496
  1 20256       1.89193995
  1 20776       1.85114372
  1 20258       1.79246615
  1 20777       1.66507977
  1 20250       1.56427443
  1 20775       1.51777714
  1 20253       1.43029806
  1 20778       1.30291168
  1 20252       1.23090790
  1 20480       1.18441069
  1 20254       1.07035146
  1 20481       0.94518641
  1 20486       0.89754145
  1 20479       0.84660151
  1 20483       0.72036278
  1 20490       0.61181980
  1 20485       0.56417484
  1 20484       0.48443342
  1 20257       0.37540917
  1 20004       0.27292080
  1 20007       0.01862816
  1 20005      -0.09318661
  1 20006      -0.31522538
  1 20000      -0.45040142
  1 19998      -0.64907896
  1 20009      -0.80132248
END period  1

