BEGIN options
  SAVE_FLOWS
END options

BEGIN dimensions
  MAXBOUND  139
END dimensions

BEGIN period  1
  1 4003     123.98177769
  1 3997     123.79536935
  1 4000     123.34260534
  1 4006     122.43341856
  1 4009     121.51179627
  1 4008     121.19374013
  1 4015     118.02638932
  1 4007     116.82045054
  1 4012     116.42312851
  1 4016     116.10359105
  1 4018     115.47625570
  1 4021     112.75916775
  1 4022     108.41911947
  1 4175     107.36112649
  1 4027     106.76690399
  1 4176     106.24493192
  1 4028     105.49479177
  1 4031     103.09747157
  1 4032     101.25460432
  1 4035      99.00000000
  1 4037      99.00000000
  1 4036      97.78396259
  1 4039      93.44726406
  1 4040      92.28917728
  1 4051      91.42835013
  1 4045      90.79227952
  1 4046      90.07216825
  1 4044      88.42961738
  1 4047      87.18526785
  1 3905      86.19980590
  1 3906      83.15070943
  1 3912      81.50062491
  1 3904      80.59460092
  1 3913      78.50606943
  1 3910      77.99264386
  1 3916      77.40828131
  1 3917      76.58898383
  1 3919      76.03560064
  1 3930      75.24312829
  1 3931      73.19522212
  1 3929      71.36387609
  1 3923      69.00000000
  1 3926      69.00000000
  1 3924      69.00000000
  1 3788      68.14373203
  1 3787      66.70870891
  1 3786      66.08803755
  1 3789      65.83649104
  1 3800      64.00000000
  1 3801      64.00000000
  1 3799      62.77766707
  1 3793      58.55775463
  1 3791      57.64234581
  1 3794      56.86099401
  1 3643      56.13467288
  1 3644      55.28352697
  1 3641      54.84573588
  1 3638      53.41390497
  1 3639      52.21326656
  1 3648      51.00690777
  1 3650      50.41025582
  1 3530      48.55053468
  1 3529      47.64696299
  1 3528      47.18699933
  1 3526      47.01894307
  1 3523      46.61296008
  1 3524      45.94743140
  1 3418      45.14414525
  1 3416      42.84494646
  1 3410      41.48681138
  1 3411      38.52349625
  1 3409      37.58476429
  1 3420      37.04239154
  1 3293      36.48063193
  1 3294      35.67304234
  1 3295      34.94924017
  1 3292      33.80915817
  1 3290      33.28455605
  1 3289      32.79017673
  1 3301      32.31327364
  1 3302      31.67591320
  1 3305      30.99889567
  1 3304      30.21754652
  1 3303      29.77586391
  1 3146      28.61310665
  1 3309      28.19554489
  1 3147      28.04851014
  1 3145      27.63292789
  1 3148      27.03732688
  1 3142      26.67213392
  1 3143      26.26869921
  1 3154      25.61183163
  1 3155      24.96652664
  1 3158      24.00000000
  1 3165      24.00000000
  1 3159      23.36120026
  1 3164      22.08360079
  1 3172      20.74189261
  1 3168      19.35814373
  1 3169      18.67055954
  1 3177      18.03237703
  1 3180      16.65952803
  1 3179      15.80004921
  1 3183      15.12207972
  1 3322      14.44563738
  1 3328      12.63309928
  1 3323      11.87926573
  1 3329      11.05509042
  1 3196      10.29664070
  1 3193       9.94112447
  1 3194       8.74249678
  1 3189       8.25357622
  1 3188       7.99689242
  1 3200       7.86108566
  1 3198       7.57543984
  1 3199       7.27307192
  1 3006       7.05398251
  1 3010       6.76346397
  1 3009       6.36621039
  1 3015       6.06297038
  1 3205       5.83308793
  1 3206       5.48902992
  1 3209       5.06984952
  1 3210       4.66745794
  1 3215       4.24315782
  1 3216       3.80109434
  1 3029       3.31291784
  1 3026       3.03984013
  1 3028       2.77746150
  1 3030       2.48942499
  1 3031       2.38076666
  1 3022       2.28070521
  1 3033       2.02430670
  1 3032       1.16431551
  1 2853       0.89539814
  1 2851       0.68217267
  1 2852       0.38365765
  1 2854       0.07644401
  1 2858      -0.34156249
END period  1

