BEGIN options
  SAVE_FLOWS
END options

BEGIN dimensions
  MAXBOUND  139
END dimensions

BEGIN period  1
  1 2582     123.98177769
  1 2576     123.79536935
  1 2579     123.34260534
  1 2585     122.43341856
  1 2588     121.51179627
  1 2587     121.19374013
  1 2594     118.02638932
  1 2586     116.82045054
  1 2591     116.42312851
  1 2595     116.10359105
  1 2597     115.47625570
  1 2600     112.75916775
  1 2601     108.41911947
  1 2727     107.36112649
  1 2606     106.76690399
  1 2728     106.24493192
  1 2607     105.49479177
  1 2610     103.09747157
  1 2611     101.25460432
  1 2614      99.00000000
  1 2616      99.00000000
  1 2615      97.78396259
  1 2618      93.44726406
  1 2619      92.28917728
  1 2630      91.42835013
  1 2624      90.79227952
  1 2625      90.07216825
  1 2623      88.42961738
  1 2626      87.18526785
  1 2514      86.19980590
  1 2515      83.15070943
  1 2521      81.50062491
  1 2513      80.59460092
  1 2522      78.50606943
  1 2519      77.99264386
  1 2525      77.40828131
  1 2526      76.58898383
  1 2528      76.03560064
  1 2539      75.24312829
  1 2540      73.19522212
  1 2538      71.36387609
  1 2532      69.00000000
  1 2535      69.00000000
  1 2533      69.00000000
  1 2427      68.14373203
  1 2426      66.70870891
  1 2425      66.08803755
  1 2428      65.83649104
  1 2439      64.00000000
  1 2440      64.00000000
  1 2438      62.77766707
  1 2432      58.55775463
  1 2430      57.64234581
  1 2433      56.86099401
  1 2308      56.13467288
  1 2309      55.28352697
  1 2306      54.84573588
  1 2303      53.41390497
  1 2304      52.21326656
  1 2313      51.00690777
  1 2315      50.41025582
  1 2225      48.55053468
  1 2224      47.64696299
  1 2223      47.18699933
  1 2221      47.01894307
  1 2218      46.61296008
  1 2219      45.94743140
  1 2143      45.14414525
  1 2141      42.84494646
  1 2135      41.48681138
  1 2136      38.52349625
  1 2134      37.58476429
  1 2145      37.04239154
  1 2046      36.48063193
  1 2047      35.67304234
  1 2048      34.94924017
  1 2045      33.80915817
  1 2043      33.28455605
  1 2042      32.79017673
  1 2054      32.31327364
  1 2055      31.67591320
  1 2058      30.99889567
  1 2057      30.21754652
  1 2056      29.77586391
  1 1927      28.61310665
  1 2062      28.19554489
  1 1928      28.04851014
  1 1926      27.63292789
  1 1929      27.03732688
  1 1923      26.67213392
  1 1924      26.26869921
  1 1935      25.61183163
  1 1936      24.96652664
  1 1939      24.00000000
  1 1946      24.00000000
  1 1940      23.36120026
  1 1945      22.08360079
  1 1953      20.74189261
  1 1949      19.35814373
  1 1950      18.67055954
  1 1958      18.03237703
  1 1961      16.65952803
  1 1960      15.80004921
  1 1964      15.12207972
  1 2075      14.44563738
  1 2081      12.63309928
  1 2076      11.87926573
  1 2082      11.05509042
  1 1977      10.29664070
  1 1974       9.94112447
  1 1975       8.74249678
  1 1970       8.25357622
  1 1969       7.99689242
  1 1981       7.86108566
  1 1979       7.57543984
  1 1980       7.27307192
  1 1808       7.05398251
  1 1812       6.76346397
  1 1811       6.36621039
  1 1817       6.06297038
  1 1986       5.83308793
  1 1987       5.48902992
  1 1990       5.06984952
  1 1991       4.66745794
  1 1996       4.24315782
  1 1997       3.80109434
  1 1831       3.31291784
  1 1828       3.03984013
  1 1830       2.77746150
  1 1832       2.48942499
  1 1833       2.38076666
  1 1824       2.28070521
  1 1835       2.02430670
  1 1834       1.16431551
  1 1684       0.89539814
  1 1682       0.68217267
  1 1683       0.38365765
  1 1685       0.07644401
  1 1689      -0.34156249
END period  1

