BEGIN options
  SAVE_FLOWS
END options

BEGIN dimensions
  MAXBOUND  179
END dimensions

BEGIN period  1
  1 980       0.00000000
  1 981       0.00000000
  1 982       0.00000000
  1 1149       0.00000000
  1 1150       0.00000000
  1 1151       0.00000000
  1 1318       0.00000000
  1 1485       0.00000000
  1 1486       0.00000000
  1 1653       0.00000000
  1 1820       0.00000000
  1 1987       0.00000000
  1 2154       0.00000000
  1 2321       0.00000000
  1 2320       0.00000000
  1 2487       0.00000000
  1 2654       0.00000000
  1 2821       0.00000000
  1 2988       0.00000000
  1 3155       0.00000000
  1 3154       0.00000000
  1 3488       0.00000000
  1 3321       0.00000000
  1 3655       0.00000000
  1 3822       0.00000000
  1 3989       0.00000000
  1 4156       0.00000000
  1 4323       0.00000000
  1 4489       0.00000000
  1 4656       0.00000000
  1 4823       0.00000000
  1 4990       0.00000000
  1 5157       0.00000000
  1 5324       0.00000000
  1 5491       0.00000000
  1 5490       0.00000000
  1 5657       0.00000000
  1 5824       0.00000000
  1 5991       0.00000000
  1 6158       0.00000000
  1 6325       0.00000000
  1 6659       0.00000000
  1 6492       0.00000000
  1 6826       0.00000000
  1 7159       0.00000000
  1 6825       0.00000000
  1 6992       0.00000000
  1 7326       0.00000000
  1 7493       0.00000000
  1 7660       0.00000000
  1 7827       0.00000000
  1 7994       0.00000000
  1 8161       0.00000000
  1 8328       0.00000000
  1 8495       0.00000000
  1 8662       0.00000000
  1 8996       0.00000000
  1 8829       0.00000000
  1 9163       0.00000000
  1 9330       0.00000000
  1 9497       0.00000000
  1 10031       0.00000000
  1 9664       0.00000000
  1 9831       0.00000000
  1 10452       0.00000000
  1 10231       0.00000000
  1 10233       0.00000000
  1 10739       0.00000000
  1 11086       0.00000000
  1 11349       0.00000000
  1 11573       0.00000000
  1 12060       0.00000000
  1 11803       0.00000000
  1 12753       0.00000000
  1 12296       0.00000000
  1 12508       0.00000000
  1 12752       0.00000000
  1 12947       0.00000000
  1 12946       0.00000000
  1 13113       0.00000000
  1 13280       0.00000000
  1 13447       0.00000000
  1 13614       0.00000000
  1 13781       0.00000000
  1 13949       0.00000000
  1 13948       0.00000000
  1 14283       0.00000000
  1 14116       0.00000000
  1 14450       0.00000000
  1 14617       0.00000000
  1 14784       0.00000000
  1 14968       0.00000000
  1 14963       0.00000000
  1 14966       0.00000000
  1 15305       0.00000000
  1 15717       0.00000000
  1 15307       0.00000000
  1 15312       0.00000000
  1 15310       0.00000000
  1 16016       0.00000000
  1 15719       0.00000000
  1 16228       0.00000000
  1 16227       0.00000000
  1 16436       0.00000000
  1 16687       0.00000000
  1 17013       0.00000000
  1 17330       0.00000000
  1 17653       0.00000000
  1 18640       0.00000000
  1 17952       0.00000000
  1 18257       0.00000000
  1 19259       0.00000000
  1 18990       0.00000000
  1 19504       0.00000000
  1 19778       0.00000000
  1 19779       0.00000000
  1 20038       0.00000000
  1 20280       0.00000000
  1 20809       0.00000000
  1 20516       0.00000000
  1 21345       0.00000000
  1 21096       0.00000000
  1 21342       0.00000000
  1 21677       0.00000000
  1 21679       0.00000000
  1 22024       0.00000000
  1 22532       0.00000000
  1 22290       0.00000000
  1 23383       0.00000000
  1 22765       0.00000000
  1 23180       0.00000000
  1 22971       0.00000000
  1 24267       0.00000000
  1 23598       0.00000000
  1 24046       0.00000000
  1 23822       0.00000000
  1 24503       0.00000000
  1 24707       0.00000000
  1 24706       0.00000000
  1 24937       0.00000000
  1 25188       0.00000000
  1 26241       0.00000000
  1 25430       0.00000000
  1 25930       0.00000000
  1 25696       0.00000000
  1 25929       0.00000000
  1 26955       0.00000000
  1 26525       0.00000000
  1 26731       0.00000000
  1 27167       0.00000000
  1 27374       0.00000000
  1 27376       0.00000000
  1 28056       0.00000000
  1 27662       0.00000000
  1 27669       0.00000000
  1 27664       0.00000000
  1 27666       0.00000000
  1 29069       0.00000000
  1 28457       0.00000000
  1 28860       0.00000000
  1 28678       0.00000000
  1 29669       0.00000000
  1 29296       0.00000000
  1 29490       0.00000000
  1 30057       0.00000000
  1 29860       0.00000000
  1 30251       0.00000000
  1 30445       0.00000000
  1 30633       0.00000000
  1 30842       0.00000000
  1 31036       0.00000000
  1 31037       0.00000000
  1 31225       0.00000000
  1 31416       0.00000000
  1 31602       0.00000000
  1 31417       0.00000000
  1 31790       0.00000000
  1 31791       0.00000000
  1 31991       0.00000000
END period  1

