BEGIN options
  SAVE_FLOWS
END options

BEGIN dimensions
  MAXBOUND  117
END dimensions

BEGIN period  1
  1 10       0.00000000
  1 11       0.00000000
  1 12       0.00000000
  1 19       0.00000000
  1 20       0.00000000
  1 28       0.00000000
  1 35       0.00000000
  1 42       0.00000000
  1 48       0.00000000
  1 53       0.00000000
  1 61       0.00000000
  1 60       0.00000000
  1 70       0.00000000
  1 79       0.00000000
  1 88       0.00000000
  1 97       0.00000000
  1 107       0.00000000
  1 118       0.00000000
  1 130       0.00000000
  1 117       0.00000000
  1 144       0.00000000
  1 161       0.00000000
  1 180       0.00000000
  1 201       0.00000000
  1 222       0.00000000
  1 244       0.00000000
  1 267       0.00000000
  1 291       0.00000000
  1 266       0.00000000
  1 315       0.00000000
  1 338       0.00000000
  1 362       0.00000000
  1 397       0.00000000
  1 432       0.00000000
  1 466       0.00000000
  1 499       0.00000000
  1 533       0.00000000
  1 568       0.00000000
  1 689       0.00000000
  1 612       0.00000000
  1 693       0.00000000
  1 691       0.00000000
  1 815       0.00000000
  1 814       0.00000000
  1 987       0.00000000
  1 1087       0.00000000
  1 1206       0.00000000
  1 1411       0.00000000
  1 1309       0.00000000
  1 1468       0.00000000
  1 1511       0.00000000
  1 1554       0.00000000
  1 1598       0.00000000
  1 1646       0.00000000
  1 1696       0.00000000
  1 1748       0.00000000
  1 1880       0.00000000
  1 1882       0.00000000
  1 2124       0.00000000
  1 1883       0.00000000
  1 2270       0.00000000
  1 2125       0.00000000
  1 2129       0.00000000
  1 2130       0.00000000
  1 2127       0.00000000
  1 2271       0.00000000
  1 2399       0.00000000
  1 2602       0.00000000
  1 2823       0.00000000
  1 3293       0.00000000
  1 3037       0.00000000
  1 3294       0.00000000
  1 3500       0.00000000
  1 3670       0.00000000
  1 3827       0.00000000
  1 3976       0.00000000
  1 4145       0.00000000
  1 4338       0.00000000
  1 4332       0.00000000
  1 4340       0.00000000
  1 4565       0.00000000
  1 4567       0.00000000
  1 4707       0.00000000
  1 5005       0.00000000
  1 4826       0.00000000
  1 4917       0.00000000
  1 4916       0.00000000
  1 5210       0.00000000
  1 5099       0.00000000
  1 5317       0.00000000
  1 5430       0.00000000
  1 5559       0.00000000
  1 5863       0.00000000
  1 5688       0.00000000
  1 5862       0.00000000
  1 6097       0.00000000
  1 5994       0.00000000
  1 6205       0.00000000
  1 6204       0.00000000
  1 6210       0.00000000
  1 6450       0.00000000
  1 6211       0.00000000
  1 6448       0.00000000
  1 6733       0.00000000
  1 6655       0.00000000
  1 6976       0.00000000
  1 6832       0.00000000
  1 6909       0.00000000
  1 7055       0.00000000
  1 7127       0.00000000
  1 7128       0.00000000
  1 7211       0.00000000
  1 7282       0.00000000
  1 7351       0.00000000
  1 7352       0.00000000
  1 7424       0.00000000
  1 7490       0.00000000
END period  1

