BEGIN options
  SAVE_FLOWS
END options

BEGIN dimensions
  MAXBOUND  107
END dimensions

BEGIN period  1
  1 8       0.00000000
  1 7       0.00000000
  1 17       0.00000000
  1 26       0.00000000
  1 35       0.00000000
  1 44       0.00000000
  1 54       0.00000000
  1 65       0.00000000
  1 77       0.00000000
  1 64       0.00000000
  1 91       0.00000000
  1 108       0.00000000
  1 127       0.00000000
  1 148       0.00000000
  1 169       0.00000000
  1 191       0.00000000
  1 214       0.00000000
  1 238       0.00000000
  1 213       0.00000000
  1 262       0.00000000
  1 285       0.00000000
  1 309       0.00000000
  1 344       0.00000000
  1 379       0.00000000
  1 413       0.00000000
  1 446       0.00000000
  1 480       0.00000000
  1 515       0.00000000
  1 636       0.00000000
  1 559       0.00000000
  1 640       0.00000000
  1 638       0.00000000
  1 762       0.00000000
  1 761       0.00000000
  1 934       0.00000000
  1 1034       0.00000000
  1 1153       0.00000000
  1 1358       0.00000000
  1 1256       0.00000000
  1 1415       0.00000000
  1 1458       0.00000000
  1 1501       0.00000000
  1 1545       0.00000000
  1 1593       0.00000000
  1 1643       0.00000000
  1 1695       0.00000000
  1 1827       0.00000000
  1 1829       0.00000000
  1 2071       0.00000000
  1 1830       0.00000000
  1 2217       0.00000000
  1 2072       0.00000000
  1 2076       0.00000000
  1 2077       0.00000000
  1 2074       0.00000000
  1 2218       0.00000000
  1 2346       0.00000000
  1 2549       0.00000000
  1 2770       0.00000000
  1 3240       0.00000000
  1 2984       0.00000000
  1 3241       0.00000000
  1 3447       0.00000000
  1 3617       0.00000000
  1 3774       0.00000000
  1 3923       0.00000000
  1 4092       0.00000000
  1 4285       0.00000000
  1 4279       0.00000000
  1 4287       0.00000000
  1 4512       0.00000000
  1 4514       0.00000000
  1 4654       0.00000000
  1 4952       0.00000000
  1 4773       0.00000000
  1 4864       0.00000000
  1 4863       0.00000000
  1 5157       0.00000000
  1 5046       0.00000000
  1 5264       0.00000000
  1 5377       0.00000000
  1 5506       0.00000000
  1 5810       0.00000000
  1 5635       0.00000000
  1 5809       0.00000000
  1 6044       0.00000000
  1 5941       0.00000000
  1 6152       0.00000000
  1 6151       0.00000000
  1 6157       0.00000000
  1 6397       0.00000000
  1 6158       0.00000000
  1 6395       0.00000000
  1 6680       0.00000000
  1 6602       0.00000000
  1 6923       0.00000000
  1 6779       0.00000000
  1 6856       0.00000000
  1 7002       0.00000000
  1 7074       0.00000000
  1 7075       0.00000000
  1 7158       0.00000000
  1 7229       0.00000000
  1 7298       0.00000000
  1 7299       0.00000000
  1 7371       0.00000000
  1 7437       0.00000000
END period  1

