BEGIN options
  SAVE_FLOWS
END options

BEGIN dimensions
  MAXBOUND  201
END dimensions

BEGIN period  1
  1 100       0.00000000
  1 105       0.00000000
  1 103       0.00000000
  1 106       0.00000000
  1 111       0.00000000
  1 167       0.00000000
  1 166       0.00000000
  1 169       0.00000000
  1 172       0.00000000
  1 175       0.00000000
  1 176       0.00000000
  1 178       0.00000000
  1 233       0.00000000
  1 235       0.00000000
  1 238       0.00000000
  1 239       0.00000000
  1 240       0.00000000
  1 294       0.00000000
  1 299       0.00000000
  1 296       0.00000000
  1 301       0.00000000
  1 362       0.00000000
  1 359       0.00000000
  1 361       0.00000000
  1 367       0.00000000
  1 427       0.00000000
  1 369       0.00000000
  1 429       0.00000000
  1 432       0.00000000
  1 434       0.00000000
  1 488       0.00000000
  1 489       0.00000000
  1 490       0.00000000
  1 493       0.00000000
  1 495       0.00000000
  1 556       0.00000000
  1 558       0.00000000
  1 553       0.00000000
  1 550       0.00000000
  1 555       0.00000000
  1 613       0.00000000
  1 615       0.00000000
  1 618       0.00000000
  1 620       0.00000000
  1 675       0.00000000
  1 677       0.00000000
  1 676       0.00000000
  1 679       0.00000000
  1 681       0.00000000
  1 736       0.00000000
  1 738       0.00000000
  1 743       0.00000000
  1 741       0.00000000
  1 804       0.00000000
  1 806       0.00000000
  1 809       0.00000000
  1 803       0.00000000
  1 811       0.00000000
  1 869       0.00000000
  1 871       0.00000000
  1 874       0.00000000
  1 876       0.00000000
  1 931       0.00000000
  1 933       0.00000000
  1 936       0.00000000
  1 938       0.00000000
  1 993       0.00000000
  1 998       0.00000000
  1 995       0.00000000
  1 1055       0.00000000
  1 1000       0.00000000
  1 1057       0.00000000
  1 1060       0.00000000
  1 1062       0.00000000
  1 1123       0.00000000
  1 1250       0.00000000
  1 1122       0.00000000
  1 1129       0.00000000
  1 1124       0.00000000
  1 1127       0.00000000
  1 1252       0.00000000
  1 1257       0.00000000
  1 1255       0.00000000
  1 1413       0.00000000
  1 1411       0.00000000
  1 1418       0.00000000
  1 1416       0.00000000
  1 1538       0.00000000
  1 1536       0.00000000
  1 1631       0.00000000
  1 1541       0.00000000
  1 1543       0.00000000
  1 1633       0.00000000
  1 1636       0.00000000
  1 1638       0.00000000
  1 1693       0.00000000
  1 1695       0.00000000
  1 1698       0.00000000
  1 1700       0.00000000
  1 1757       0.00000000
  1 1755       0.00000000
  1 1762       0.00000000
  1 1760       0.00000000
  1 1829       0.00000000
  1 1830       0.00000000
  1 1832       0.00000000
  1 1835       0.00000000
  1 1837       0.00000000
  1 1994       0.00000000
  1 1996       0.00000000
  1 1999       0.00000000
  1 2154       0.00000000
  1 2001       0.00000000
  1 2000       0.00000000
  1 2156       0.00000000
  1 2159       0.00000000
  1 2161       0.00000000
  1 2348       0.00000000
  1 2350       0.00000000
  1 2355       0.00000000
  1 2353       0.00000000
  1 2557       0.00000000
  1 2560       0.00000000
  1 2565       0.00000000
  1 2562       0.00000000
  1 2736       0.00000000
  1 2559       0.00000000
  1 2734       0.00000000
  1 2739       0.00000000
  1 2741       0.00000000
  1 2871       0.00000000
  1 2873       0.00000000
  1 2876       0.00000000
  1 3050       0.00000000
  1 2878       0.00000000
  1 3060       0.00000000
  1 3052       0.00000000
  1 3058       0.00000000
  1 3229       0.00000000
  1 3231       0.00000000
  1 3236       0.00000000
  1 3234       0.00000000
  1 3442       0.00000000
  1 3342       0.00000000
  1 3354       0.00000000
  1 3344       0.00000000
  1 3352       0.00000000
  1 3347       0.00000000
  1 3552       0.00000000
  1 3444       0.00000000
  1 3449       0.00000000
  1 3447       0.00000000
  1 3557       0.00000000
  1 3554       0.00000000
  1 3559       0.00000000
  1 3672       0.00000000
  1 3671       0.00000000
  1 3674       0.00000000
  1 3677       0.00000000
  1 3832       0.00000000
  1 3679       0.00000000
  1 3829       0.00000000
  1 3824       0.00000000
  1 3826       0.00000000
  1 3957       0.00000000
  1 3834       0.00000000
  1 3954       0.00000000
  1 3952       0.00000000
  1 3959       0.00000000
  1 4126       0.00000000
  1 4125       0.00000000
  1 4128       0.00000000
  1 4136       0.00000000
  1 4134       0.00000000
  1 4294       0.00000000
  1 4287       0.00000000
  1 4292       0.00000000
  1 4289       0.00000000
  1 4468       0.00000000
  1 4379       0.00000000
  1 4386       0.00000000
  1 4381       0.00000000
  1 4384       0.00000000
  1 4473       0.00000000
  1 4470       0.00000000
  1 4475       0.00000000
  1 4557       0.00000000
  1 4564       0.00000000
  1 4559       0.00000000
  1 4567       0.00000000
  1 4569       0.00000000
  1 4645       0.00000000
  1 4647       0.00000000
  1 4651       0.00000000
  1 4648       0.00000000
  1 4653       0.00000000
  1 4656       0.00000000
  1 4738       0.00000000
  1 4740       0.00000000
  1 4741       0.00000000
  1 4744       0.00000000
END period  1

