BEGIN options
  SAVE_FLOWS
END options

BEGIN dimensions
  MAXBOUND  431
END dimensions

BEGIN period  1
  1 34888     130.78726775
  1 34900     130.43565769
  1 34889     130.00647905
  1 34898     129.55756737
  1 34894     129.10865568
  1 34895     128.52805402
  1 34904     127.92387148
  1 34899     127.30209885
  1 34676     126.72753796
  1 34905     126.40610655
  1 34680     126.13663216
  1 34679     125.61701637
  1 34683     125.01305742
  1 34678     124.62296595
  1 34687     124.24293733
  1 34684     123.66509387
  1 34688     123.08123711
  1 34699     122.48386709
  1 34693     122.02382479
  1 34696     121.56749359
  1 34695     121.12786774
  1 34717     113.76567228
  1 34715     113.19847976
  1 34500     112.59401335
  1 34713     112.28719827
  1 34714     111.99690370
  1 34498     111.40451563
  1 34493     110.80343682
  1 34495     110.22700303
  1 34318     109.65019045
  1 34313     109.11759225
  1 34316     108.58427795
  1 34321     108.23036858
  1 34126     107.85618222
  1 34319     107.24079991
  1 34125     106.74195980
  1 34124     106.42903518
  1 34117     106.07200480
  1 34119     105.52114228
  1 33868     104.95755829
  1 34120     104.63440613
  1 33870     104.25199310
  1 33869     103.64725851
  1 33874     103.06139061
  1 33875     102.47725456
  1 33878     101.88447694
  1 33879     101.28987719
  1 33888     100.70548951
  1 33884     100.12836230
  1 33885      99.55164845
  1 33894      98.97374828
  1 33889      98.39351119
  1 33898      97.81213930
  1 33895      97.23315081
  1 33899      96.65195099
  1 33905      96.06934279
  1 33904      95.48430739
  1 33909      94.89912183
  1 33908      94.32101503
  1 33931      93.74387475
  1 33920      93.22078020
  1 33928      92.69671599
  1 33914      92.35116429
  1 33927      92.00561259
  1 33915      91.42586839
  1 33919      90.84612419
  1 33918      90.26638000
  1 33938      89.68761775
  1 33932      89.11058274
  1 33937      88.53429302
  1 33942      88.04231948
  1 33941      87.54855378
  1 33945      86.94304508
  1 33940      86.52797474
  1 33687      86.35271812
  1 33946      86.01860632
  1 33691      85.66453960
  1 33690      85.22129461
  1 33695      84.55981779
  1 33689      84.00838900
  1 33701      83.74544061
  1 33700      83.39026017
  1 33696      82.91893919
  1 33698      82.56447185
  1 33499      82.08412570
  1 33697      81.53660245
  1 33498      81.08940379
  1 33489      80.78115136
  1 33500      80.38608409
  1 33496      79.76712284
  1 33493      79.30210205
  1 33298      78.83988687
  1 33494      78.47186194
  1 33503      78.44725698
  1 33495      78.03276716
  1 32700      58.85284684
  1 32694      58.68550548
  1 32705      58.49312320
  1 32703      58.29034264
  1 32297      55.99537109
  1 32291      55.72438224
  1 32299      55.57548493
  1 32113      55.41617498
  1 32111      55.13865473
  1 32106      54.89277224
  1 32105      54.73669904
  1 32107      54.55441325
  1 32104      54.32349921
  1 31906      54.06859760
  1 31905      53.87336341
  1 31922      53.69551078
  1 31911      53.42044956
  1 31914      53.14720718
  1 31912      52.94204309
  1 31913      52.73687900
  1 31910      52.53217953
  1 31923      52.04859589
  1 31726      51.46484701
  1 31931      51.25224827
  1 31930      51.04185034
  1 31727      50.75206622
  1 31729      50.54549131
  1 31542      50.42261686
  1 31728      50.33526750
  1 31544      50.14384046
  1 31722      49.83682300
  1 31731      49.61734103
  1 31720      49.46383230
  1 31537      49.30653720
  1 31543      49.10879538
  1 31353      48.81448155
  1 31540      48.52450692
  1 31352      48.36776378
  1 31538      48.27451153
  1 31354      48.06366422
  1 31539      47.77579984
  1 31346      47.59200453
  1 31168      47.47362583
  1 31356      47.37661520
  1 31165      47.19300333
  1 31350      46.89614565
  1 31361      46.75223361
  1 31351      46.64961147
  1 31360      46.38863554
  1 31349      46.15832582
  1 31172      45.94383202
  1 31166      45.69528967
  1 31161      45.53345506
  1 31167      45.35994667
  1 30979      45.06523550
  1 31170      44.85236281
  1 30968      44.81084998
  1 31171      44.63669492
  1 30974      44.29764680
  1 30972      44.09769108
  1 30973      44.05617826
  1 30975      43.86912285
  1 30766      43.53692012
  1 30977      43.37004017
  1 30765      43.33322704
  1 30978      43.12983966
  1 30771      42.82090041
  1 30981      42.63948307
  1 30760      42.51616265
  1 30761      42.30857396
  1 30762      42.09034330
  1 30768      41.85633614
  1 30769      41.66181383
  1 30767      41.50963853
  1 30778      41.24102155
  1 30770      41.06698382
  1 30779      40.91880722
  1 30782      40.63938240
  1 30788      40.39532109
  1 30783      40.14839460
  1 30787      39.85361363
  1 30786      39.66311871
  1 30579      39.53855954
  1 30790      39.36804617
  1 30578      39.21009700
  1 30580      39.01914239
  1 30586      38.80555685
  1 30584      38.68767654
  1 30583      38.52961957
  1 30582      38.24685167
  1 30386      37.96819147
  1 30388      37.71468246
  1 30389      37.54448111
  1 30387      37.38117034
  1 30391      37.25356835
  1 30382      37.18715190
  1 30393      36.97773647
  1 30392      36.65138212
  1 30190      36.36068644
  1 30395      36.19596334
  1 30191      36.02786918
  1 30200      35.73863012
  1 30189      35.54167588
  1 30195      35.39793081
  1 30201      35.24390940
  1 30205      35.05380486
  1 30198      34.76496067
  1 30197      34.57991370
  1 30199      34.43699207
  1 30206      34.22066561
  1 29999      34.01961173
  1 29998      33.87108113
  1 30001      33.69541264
  1 30000      33.43535734
  1 30005      33.14700611
  1 29994      32.99455492
  1 30009      32.84829903
  1 30006      32.57768097
  1 30015      32.29947481
  1 30010      32.02248911
  1 30014      31.70490032
  1 30013      31.51162401
  1 29815      31.36215399
  1 29812      31.21416011
  1 29813      31.07879652
  1 29808      30.79330348
  1 29814      30.58069757
  1 29817      30.38885887
  1 29819      30.23868242
  1 29630      30.09095455
  1 29625      29.81813824
  1 29628      29.54607113
  1 29439      29.26709444
  1 29623      28.98458189
  1 29432      28.70420487
  1 29437      28.53579422
  1 29438      28.38879376
  1 29207      28.13326905
  1 29430      27.85796328
  1 29433      27.71722829
  1 29205      27.57829351
  1 29202      27.29404244
  1 29200      27.07967578
  1 28999      26.56613236
  1 29201      26.30282134
  1 28998      26.07674289
  1 29209      25.94729952
  1 29000      25.78857118
  1 29002      25.65250571
  1 29006      25.51754669
  1 29001      25.27653059
  1 29218      25.01441403
  1 29007      24.84748634
  1 29217      24.81036749
  1 29009      24.68146847
  1 29012      24.45097223
  1 29232      24.20647543
  1 29223      24.04894092
  1 29229      23.94503977
  1 29225      23.75621271
  1 29226      23.56730156
  1 29240      23.37084536
  1 29234      23.23377213
  1 29235      23.08841415
  1 29241      22.84062186
  1 29245      22.60757961
  1 29244      22.37502601
  1 29253      22.13633252
  1 29254      21.89770276
  1 29256      21.77297367
  1 29252      21.74593288
  1 29255      21.57692754
  1 29250      21.27168520
  1 29032      20.99232992
  1 29248      20.85444455
  1 29029      20.82879874
  1 29259      20.66514372
  1 29031      20.36347948
  1 29030      20.19982446
  1 29025      20.06520352
  1 29026      19.81620140
  1 29024      19.68724995
  1 28821      19.56310017
  1 28823      19.32165991
  1 28824      19.08251233
  1 28818      18.94173966
  1 28826      18.81230801
  1 28606      18.56124970
  1 28825      18.39757075
  1 28603      18.35917078
  1 28605      18.19441813
  1 28599      18.02070431
  1 28600      17.97047004
  1 28601      17.80792829
  1 28232      17.53701267
  1 28610      17.26692885
  1 28229      17.03565142
  1 28611      16.89820397
  1 28242      16.73222513
  1 28233      16.60859128
  1 28231      16.47863054
  1 28240      16.23125222
  1 28243      16.05195924
  1 28237      15.93073718
  1 28241      15.75263011
  1 28249      15.51905167
  1 28253      15.28671453
  1 28250      15.05468460
  1 28254      14.82114520
  1 28263      14.57672480
  1 28259      14.32846260
  1 28262      14.20033740
  1 28266      14.07687023
  1 28272      13.84402068
  1 28267      13.61217930
  1 28273      13.37977813
  1 28277      13.14723640
  1 28276      12.91520199
  1 28283      12.68311806
  1 28282      12.45085113
  1 28287      12.21863147
  1 28286      11.98651550
  1 28296      11.74974052
  1 28295      11.51117726
  1 28294      11.27266862
  1 28299      11.13733750
  1 28293      11.01514618
  1 28306      10.78995724
  1 28305      10.55430769
  1 28314      10.42942878
  1 28309      10.30681616
  1 28313      10.18878318
  1 28310      10.07075020
  1 28315       9.84158275
  1 28325       9.61227614
  1 28316       9.38691994
  1 28320       9.16104054
  1 28319       8.92824885
  1 28326       8.69410198
  1 28333       8.45484902
  1 28329       8.22923145
  1 28328       8.00718443
  1 28327       7.87543725
  1 28334       7.73857333
  1 27951       7.51296894
  1 28337       7.33971575
  1 27950       7.15137936
  1 27940       6.98679736
  1 27947       6.82221536
  1 27941       6.58693643
  1 27946       6.35165750
  1 27955       5.95776579
  1 27949       5.90971587
  1 27954       5.86104732
  1 27959       5.77633720
  1 27958       5.69256733
  1 27969       5.60877452
  1 27964       5.52510786
  1 27968       5.44153498
  1 27965       5.35796210
  1 27978       5.27282943
  1 27974       5.18751582
  1 27975       5.10358105
  1 27986       5.01908301
  1 27979       4.95947424
  1 27981       4.91421286
  1 27987       4.84306685
  1 27990       4.76748025
  1 28375       4.68799978
  1 28360       4.62568607
  1 28372       4.60152982
  1 28361       4.54329154
  1 28369       4.45291240
  1 28366       4.39938099
  1 28368       4.34984191
  1 28383       4.28982084
  1 28376       4.22329637
  1 28381       4.15987739
  1 28388       4.09786493
  1 28384       4.01414830
  1 28387       3.93060416
  1 28392       3.84677125
  1 28393       3.79437607
  1 28391       3.75235956
  1 28401       3.67790252
  1 28395       3.59226673
  1 28396       3.50654489
  1 28406       3.42177083
  1 28402       3.33801600
  1 28405       3.25433263
  1 28412       3.17016649
  1 28411       3.08591642
  1 28418       3.03173790
  1 28415       2.97423469
  1 28416       2.89678110
  1 28427       2.85822795
  1 28426       2.81009912
  1 28442       2.72303832
  1 28425       2.63954436
  1 28437       2.55675407
  1 28428       2.46759778
  1 28436       2.40104837
  1 28429       2.34230156
  1 28438       2.28291913
  1 28423       2.25250964
  1 28435       2.20012890
  1 28434       2.11097260
  1 28016       2.02042126
  1 28443       1.97178400
  1 28013       1.92551545
  1 28027       1.83863888
  1 28017       1.78444896
  1 28026       1.72887150
  1 28015       1.65047008
  1 27643       1.57343897
  1 28021       1.52922272
  1 27642       1.50100876
  1 28024       1.43078080
  1 28045       1.37218592
  1 28025       1.31359104
  1 28042       1.22770914
  1 28033       1.14182724
  1 28041       1.05594534
  1 28034       0.97006344
  1 28036       0.88418155
  1 28037       0.83387708
  1 28035       0.79093613
  1 27653       0.71041014
  1 27651       0.62006949
  1 27650       0.54614197
  1 27652       0.50074987
  1 27659       0.43943925
  1 27654       0.35631536
  1 27648       0.31150314
  1 27663       0.26285870
  1 27660       0.17657270
END period  1

