BEGIN options
  SAVE_FLOWS
END options

BEGIN dimensions
  MAXBOUND  132
END dimensions

BEGIN period  1
  1 5036     130.30964813
  1 5037     128.63570209
  1 5040     126.61954993
  1 5041     124.61109644
  1 5046     122.65537615
  1 5047     120.67354055
  1 5051     116.52983782
  1 5059     114.50267070
  1 5057     112.77550030
  1 5055     110.91210424
  1 5058     109.84071785
  1 5053     108.75445462
  1 4947     106.73232476
  1 4945     105.07281658
  1 4948     103.44253439
  1 4949     101.47018696
  1 4954      99.54331573
  1 4955      97.62743662
  1 4958      95.70684768
  1 4968      93.79294006
  1 4959      91.88265333
  1 4967      89.96741386
  1 4971      88.90339871
  1 4965      87.92069929
  1 4966      85.92945548
  1 4975      84.01294204
  1 4977      82.85935659
  1 4867      81.87116416
  1 4976      80.57450877
  1 4870      79.08341559
  1 4868      77.82825495
  1 4787      60.45634721
  1 4804      58.63524061
  1 4803      57.89026817
  1 4797      56.25716914
  1 4798      55.70358505
  1 4701      54.84799336
  1 4699      54.22152729
  1 4702      53.62329784
  1 4703      52.70618734
  1 4714      51.94634801
  1 4708      51.45342355
  1 4709      50.81113975
  1 4710      50.07926729
  1 4707      49.57811429
  1 4610      48.92138780
  1 4609      48.13533893
  1 4611      47.57101762
  1 4615      46.82830619
  1 4620      45.91094506
  1 4614      45.38149908
  1 4520      44.67092750
  1 4613      44.08651374
  1 4519      44.05250628
  1 4616      43.44775274
  1 4526      42.46880480
  1 4528      41.95402760
  1 4527      41.33006274
  1 4530      40.37076512
  1 4531      39.56658550
  1 4525      38.85648507
  1 4536      38.34514915
  1 4534      37.74893810
  1 4535      37.03006493
  1 4435      36.49692566
  1 4438      35.73016936
  1 4437      34.87558269
  1 4439      34.33329647
  1 4448      33.67360805
  1 4449      32.87916297
  1 4443      32.41270825
  1 4446      31.82243846
  1 4444      30.90863774
  1 4344      30.02115352
  1 4343      29.14467873
  1 4345      28.64610938
  1 4340      28.14969843
  1 4346      26.27727983
  1 4338      25.72008964
  1 4347      25.17526651
  1 4350      24.61218698
  1 4353      24.04042584
  1 4352      23.30776804
  1 4358      22.61732148
  1 4359      21.75505826
  1 4360      20.79157790
  1 4362      20.27327446
  1 4212      20.08258389
  1 4213      19.68950771
  1 4211      18.99374481
  1 4216      18.06391169
  1 4208      17.51222929
  1 4217      17.38984048
  1 4215      16.97941798
  1 4218      16.23579028
  1 4219      15.48042379
  1 4224      14.70973061
  1 4225      13.94039369
  1 4228      13.19361579
  1 4229      12.44466879
  1 4234      11.68028345
  1 4235      10.91664397
  1 4238      10.16815550
  1 4239       9.41832418
  1 4244       8.65450158
  1 4094       7.88677995
  1 4245       7.43852146
  1 4091       7.06016575
  1 4095       5.85805735
  1 4101       5.57431686
  1 4100       5.29158841
  1 4104       5.00309597
  1 4105       4.82252552
  1 4258       4.63558814
  1 4253       4.34906568
  1 4259       4.07499364
  1 4262       3.79062429
  1 4263       3.50498426
  1 4268       3.22047235
  1 4269       2.93065513
  1 4278       2.73408949
  1 4272       2.53523212
  1 4273       2.23454001
  1 4118       1.97849755
  1 4119       1.72380522
  1 4129       1.42797867
  1 4122       1.13632367
  1 4121       0.91485105
  1 4123       0.77002669
  1 4130       0.54979488
  1 4133       0.31742258
  1 4127       0.17095845
END period  1

