BEGIN options
  SAVE_FLOWS
END options

BEGIN dimensions
  MAXBOUND  708
END dimensions

BEGIN period  1
  1 20874     162.71183005
  1 20871     162.14923980
  1 20877     161.77962912
  1 20875     161.38315034
  1 20888     161.26638272
  1 20886     160.73326937
  1 20887     159.16266777
  1 20885     156.82845538
  1 20896     155.18961121
  1 20901     153.83804896
  1 20594     152.61961267
  1 20593     151.83316060
  1 20609     151.04680830
  1 20599     150.65392544
  1 20604     150.26104677
  1 20600     149.86816810
  1 20603     149.47528944
  1 20623     149.07101791
  1 20610     148.66673171
  1 20622     148.27382372
  1 20613     147.88091572
  1 20614     147.48800772
  1 20624     147.04990364
  1 20621     146.78295938
  1 20617     146.55586097
  1 20618     146.23954154
  1 20619     146.02559737
  1 20337     145.72828539
  1 20335     145.33020994
  1 20331     145.05112319
  1 20332     144.85083361
  1 20094     144.66703282
  1 20329     144.40821833
  1 20093     144.00285405
  1 20095     143.65164227
  1 20090     143.36980041
  1 20096     143.09026298
  1 20098     142.82896231
  1 19838     142.46625452
  1 20097     142.02018232
  1 19835     141.78509308
  1 19837     141.57198924
  1 19839     141.32579313
  1 19848     141.11474470
  1 19841     140.76774611
  1 19842     140.42851375
  1 19843     140.18764404
  1 19557     139.89553699
  1 19844     139.62920694
  1 19559     139.47506481
  1 19558     139.19550225
  1 19562     138.88805059
  1 19568     138.65607981
  1 19566     138.33204079
  1 19563     137.91661449
  1 19573     137.50295895
  1 19567     137.17878138
  1 19565     136.98010832
  1 19574     136.71180320
  1 19580     136.31851680
  1 19577     136.06080818
  1 19579     135.86376734
  1 19585     135.52898281
  1 19587     135.12835991
  1 19586     134.92063239
  1 19584     134.71631936
  1 19327     134.30967318
  1 19588     133.90287041
  1 19326     133.59546524
  1 19593     133.28806007
  1 19597     133.00014758
  1 19594     132.71223508
  1 19335     132.30302972
  1 19337     131.87243078
  1 19336     131.56672304
  1 19334     131.35101231
  1 19332     131.05543284
  1 19338     130.81068669
  1 19342     130.60410652
  1 19343     130.33700338
  1 19341     130.06563283
  1 19051     129.67720933
  1 19056     128.66388209
  1 19057     128.23711591
  1 19054     127.90099800
  1 19050     127.34697169
  1 19049     126.99916089
  1 18326     126.62523733
  1 18704     125.96792591
  1 18705     124.86161835
  1 18702     124.58485506
  1 18707     124.43297651
  1 18699     124.29459499
  1 18324     124.06893707
  1 18319     123.83471922
  1 18325     123.63737735
  1 18321     123.48050970
  1 18322     123.32493515
  1 18320     123.14923003
  1 18014     122.94556605
  1 18024     122.78864320
  1 18025     122.62904959
  1 18023     122.41711055
  1 17721     122.13526243
  1 18018     121.86633532
  1 18028     121.75570303
  1 18021     121.63281170
  1 18020     121.34625713
  1 18019     121.12727780
  1 17720     120.96576598
  1 17722     120.79251263
  1 17723     120.64052716
  1 17717     120.41897292
  1 17716     120.14758834
  1 17718     119.95857703
  1 17399     119.75586009
  1 17727     119.56288739
  1 17401     119.42094353
  1 17400     119.26415999
  1 17398     118.76422563
  1 17396     118.43333815
  1 17395     118.07727755
  1 17394     117.44335872
  1 17406     116.76648524
  1 17405     116.15152961
  1 17409     115.53619772
  1 17415     114.92515689
  1 17410     113.79088706
  1 17419     113.37695029
  1 17416     112.96733702
  1 17420     112.55672799
  1 17426     112.14360923
  1 17425     111.72912475
  1 17429     111.31477214
  1 17435     110.90051291
  1 17430     110.48847864
  1 17436     110.07326243
  1 17439     109.64376513
  1 17100     108.74493069
  1 17440     108.23994334
  1 17097     107.74010723
  1 17445     107.41408834
  1 17096     107.16416996
  1 17101     106.77739933
  1 17104     106.42739208
  1 17099     106.18738729
  1 17110     105.85742023
  1 17106     105.35869863
  1 17105     104.80871809
  1 17103     104.51815024
  1 17115     104.00000000
  1 17107     104.00000000
  1 16764     104.00000000
  1 17116     104.00000000
  1 16761     104.00000000
  1 16772     103.43100257
  1 16765     102.31377848
  1 16771     101.32963384
  1 16773     100.78140718
  1 16768     100.44916360
  1 16775     100.07179638
  1 16770      99.00000000
  1 16769      99.00000000
  1 16779      98.90938621
  1 16517      98.69437673
  1 16515      98.43817884
  1 16510      98.18894785
  1 16516      98.05376793
  1 16513      97.99684456
  1 16519      97.81526896
  1 16786      97.58696332
  1 16520      97.48368499
  1 16527      97.40384522
  1 16522      97.20501665
  1 16787      96.93361944
  1 16793      96.67580915
  1 16790      96.49030140
  1 16792      96.36359471
  1 16796      96.27422206
  1 16798      96.14995945
  1 16800      95.94182635
  1 16797      95.71093448
  1 16815      95.46143170
  1 16802      95.31965390
  1 16812      95.17090433
  1 16803      94.90120643
  1 16811      94.76435902
  1 16808      94.62951012
  1 16816      94.37470571
  1 16822      94.00000000
  1 16821      94.00000000
  1 16827      94.00000000
  1 16825      94.00000000
  1 17146      94.00000000
  1 16828      94.00000000
  1 17143      94.00000000
  1 17135      94.00000000
  1 17141      94.00000000
  1 17140      94.00000000
  1 17147      94.00000000
  1 17152      94.00000000
  1 17156      94.00000000
  1 17153      94.00000000
  1 17157      94.00000000
  1 17167      94.00000000
  1 17160      94.00000000
  1 17165      94.00000000
  1 17168      93.64108646
  1 17171      92.93350622
  1 17172      92.20752048
  1 17177      91.47063196
  1 17178      90.74322506
  1 17182      90.05048773
  1 17181      89.00000000
  1 17485      89.00000000
  1 17474      89.00000000
  1 17491      89.00000000
  1 17486      89.00000000
  1 17488      89.00000000
  1 17497      89.00000000
  1 17492      89.00000000
  1 17498      89.00000000
  1 17501      89.00000000
  1 17517      89.00000000
  1 17502      89.00000000
  1 17516      89.00000000
  1 17505      89.00000000
  1 17513      89.00000000
  1 17510      88.50288897
  1 17511      87.51783621
  1 17772      86.66584624
  1 17522      86.09749255
  1 17773      85.42318498
  1 17778      83.74522238
  1 17775      83.44235426
  1 17779      83.14249290
  1 17784      82.81282198
  1 17783      82.46013552
  1 17782      81.97787714
  1 17797      81.49626289
  1 17786      81.14145081
  1 17792      80.99095020
  1 17788      80.70051060
  1 17789      80.24845355
  1 17804      79.97639477
  1 17798      79.68054630
  1 17802      79.00000000
  1 17801      79.00000000
  1 17808      79.00000000
  1 17807      79.00000000
  1 18088      79.00000000
  1 17810      79.00000000
  1 17814      79.00000000
  1 17813      78.78509769
  1 18105      78.44820742
  1 18093      78.26378546
  1 18104      78.02449662
  1 18095      77.65601749
  1 18102      77.38718973
  1 18096      77.24016753
  1 18099      76.98610923
  1 18402      76.61088259
  1 18397      76.33418058
  1 18414      76.06154481
  1 18403      75.68670662
  1 18409      75.31087191
  1 18406      74.95297186
  1 18408      74.76505445
  1 18432      74.55784754
  1 18415      73.80901496
  1 18431      73.42704487
  1 18418      73.04507478
  1 18428      72.66310469
  1 18419      72.28113460
  1 18427      71.95366552
  1 18424      71.76268048
  1 18443      71.51032694
  1 18437      71.12248912
  1 18440      70.73332162
  1 18439      70.52494238
  1 18453      70.32529455
  1 18444      69.94570313
  1 18450      69.56742188
  1 18449      68.40081343
  1 18826      67.14528226
  1 18454      66.32416481
  1 18821      65.70128636
  1 18827      64.00000000
  1 18830      64.00000000
  1 18831      64.00000000
  1 18836      64.00000000
  1 18464      64.00000000
  1 18463      64.00000000
  1 18466      64.00000000
  1 18467      64.00000000
  1 18465      64.00000000
  1 18471      64.00000000
  1 18474      64.00000000
  1 18473      64.00000000
  1 18477      64.00000000
  1 18844      64.00000000
  1 18854      64.00000000
  1 18845      64.00000000
  1 18851      63.66444737
  1 18850      62.99334212
  1 18490      62.32118791
  1 18484      61.75324797
  1 18485      61.18231906
  1 18491      60.49702355
  1 18494      60.00242625
  1 18870      59.00000000
  1 18861      59.00000000
  1 18869      59.00000000
  1 18862      59.00000000
  1 18867      59.00000000
  1 18876      59.00000000
  1 18873      59.00000000
  1 18882      59.00000000
  1 18877      59.00000000
  1 18883      59.00000000
  1 18888      59.00000000
  1 18886      58.99369361
  1 18889      58.79953189
  1 18899      58.48073360
  1 18897      58.27646272
  1 18896      58.00701237
  1 18895      57.68809518
  1 18893      57.42606875
  1 18892      57.16195631
  1 18894      56.91835500
  1 18903      56.60234294
  1 18511      56.20476486
  1 18509      55.97104998
  1 18508      55.93419190
  1 18510      55.68464441
  1 18517      55.25185783
  1 18512      54.87823766
  1 18518      54.54139526
  1 18523      54.00000000
  1 18520      54.00000000
  1 18529      54.00000000
  1 18524      53.80892362
  1 18530      53.42042406
  1 18532      53.02970080
  1 18533      52.69433683
  1 18531      52.48704249
  1 18538      52.23559559
  1 18537      51.85971349
  1 18542      51.48424022
  1 18541      51.11223727
  1 18550      50.74079776
  1 18551      50.36718021
  1 18548      49.99303113
  1 18554      49.79892252
  1 18549      49.59612240
  1 18563      49.00000000
  1 18560      49.00000000
  1 18562      49.00000000
  1 18561      49.00000000
  1 18559      49.00000000
  1 18145      49.00000000
  1 18568      49.00000000
  1 18569      49.00000000
  1 18148      48.68616514
  1 18155      48.05383221
  1 18149      47.40986943
  1 18157      47.07818148
  1 18156      46.74851533
  1 18160      46.20683823
  1 18159      45.68831736
  1 18165      45.08688538
  1 18154      44.69501833
  1 18169      44.82990294
  1 18166      46.48575209
  1 18170      48.64673458
  1 18174      47.94399521
  1 18175      47.24107079
  1 18173      46.86845135
  1 18177      46.49721039
  1 18183      45.78906826
  1 18178      45.06227027
  1 17859      44.00000000
  1 18184      44.00000000
  1 17856      44.00000000
  1 17860      44.00000000
  1 17866      44.00000000
  1 17865      43.60992664
  1 17869      42.82540059
  1 17870      42.03686295
  1 17875      41.22043577
  1 17876      39.92112311
  1 17879      39.75998539
  1 17880      39.59002277
  1 17891      39.49695800
  1 17889      39.39879932
  1 17882      39.21125432
  1 17883      39.00000000
  1 17884      39.00000000
  1 17563      39.00000000
  1 17885      39.00000000
  1 17564      39.00000000
  1 17562      39.00000000
  1 17568      39.00000000
  1 17573      39.00000000
  1 17567      39.00000000
  1 17585      39.00000000
  1 17571      39.00000000
  1 17584      39.00000000
  1 17572      39.00000000
  1 17581      38.38912265
  1 17580      37.16736795
  1 17590      35.92294328
  1 17592      34.00000000
  1 17591      34.00000000
  1 17589      34.00000000
  1 17247      34.00000000
  1 17593      34.00000000
  1 17246      34.00000000
  1 17238      34.00000000
  1 17255      34.00000000
  1 17250      34.00000000
  1 17254      34.00000000
  1 17248      34.00000000
  1 17243      34.00000000
  1 17249      34.00000000
  1 16890      34.00000000
  1 17253      34.00000000
  1 16889      34.00000000
  1 17256      34.00000000
  1 17262      34.00000000
  1 17257      34.00000000
  1 16900      34.00000000
  1 16893      34.00000000
  1 16899      34.00000000
  1 16894      32.74566980
  1 16910      29.00000000
  1 16903      29.00000000
  1 16909      29.00000000
  1 16904      29.00000000
  1 16913      29.00000000
  1 16919      29.00000000
  1 16914      29.00000000
  1 16930      29.00000000
  1 16920      29.00000000
  1 16922      29.00000000
  1 16918      29.00000000
  1 16921      29.00000000
  1 16941      29.00000000
  1 16931      29.00000000
  1 16940      29.00000000
  1 16934      29.00000000
  1 16929      29.00000000
  1 16935      29.00000000
  1 16953      29.00000000
  1 16944      29.00000000
  1 16952      29.00000000
  1 16945      29.00000000
  1 16949      29.00000000
  1 16950      29.00000000
  1 16948      29.00000000
  1 16959      29.00000000
  1 16958      29.00000000
  1 16604      29.00000000
  1 16962      29.00000000
  1 16605      29.00000000
  1 16611      29.00000000
  1 16613      29.00000000
  1 16612      29.00000000
  1 16615      28.75480249
  1 16625      28.25981113
  1 16616      27.91582397
  1 16622      27.57101657
  1 16610      27.16398172
  1 16621      26.75694686
  1 16633      26.25376069
  1 16626      25.79381958
  1 16630      25.33754590
  1 16624      25.04710563
  1 16629      24.75666536
  1 16371      23.87980111
  1 16634      23.63924113
  1 16639      23.51554418
  1 16374      23.38474043
  1 16372      23.13226237
  1 16373      22.94873913
  1 16375      22.82372896
  1 16380      22.63130806
  1 16385      22.41395407
  1 16379      22.28594026
  1 16390      22.12497303
  1 16383      21.87612098
  1 16382      21.63663851
  1 16384      21.51217008
  1 16165      21.47562388
  1 16391      21.37294103
  1 16157      21.17389286
  1 16153      21.00256960
  1 16156      20.83124634
  1 16164      20.57497766
  1 16163      20.33866410
  1 16160      20.14619899
  1 16167      20.05514708
  1 16162      20.00260612
  1 16161      19.80989701
  1 16172      19.57562957
  1 16171      19.36248920
  1 15863      18.90571507
  1 15859      18.78546379
  1 15862      18.65968670
  1 15873      18.46710463
  1 15861      18.37054972
  1 15870      18.27338021
  1 15869      18.08660837
  1 15880      17.89711472
  1 15874      17.71426145
  1 15879      17.53476626
  1 15868      17.43601258
  1 15458      17.39179067
  1 15883      17.25687477
  1 15888      17.10151736
  1 15884      17.04241272
  1 15887      16.94526940
  1 15882      16.75231861
  1 15468      16.55869531
  1 15461      16.36295700
  1 15460      16.25939598
  1 15462      16.16102826
  1 15467      15.97289214
  1 15469      15.78060496
  1 15466      15.62679896
  1 15472      15.52947342
  1 15479      15.39781331
  1 15478      15.21593630
  1 15482      15.03360931
  1 15117      14.88579512
  1 15483      14.79998457
  1 15490      14.73099012
  1 15481      14.62570675
  1 15487      14.46534475
  1 15486      14.27572136
  1 15118      14.07322029
  1 15124      13.87855789
  1 15126      13.77221172
  1 15134      13.66118652
  1 15125      13.47461207
  1 15123      13.28476724
  1 15128      13.12778512
  1 15122      12.98178842
  1 15141      12.91163080
  1 15135      12.81195291
  1 15138      12.75920437
  1 15151      12.70318389
  1 15142      12.60157268
  1 15148      12.50035783
  1 15153      12.43990958
  1 15147      12.38930215
  1 15516      12.29568187
  1 15152      12.19274418
  1 15513      12.09605785
  1 15158      12.04594170
  1 15176      12.03543234
  1 15163      11.97483897
  1 15175      11.86764327
  1 15164      11.76044757
  1 15170      11.65325188
  1 15167      11.57111422
  1 15169      11.51751638
  1 15529      11.44182850
  1 15517      11.33988608
  1 15528      11.23726092
  1 15522      11.16295394
  1 15525      11.08864695
  1 15524      11.00901619
  1 15534      10.93024645
  1 15544      10.82882198
  1 15535      10.72770317
  1 15539      10.62741136
  1 15538      10.52711956
  1 15552      10.42620309
  1 15545      10.32426094
  1 15547      10.22574713
  1 15548      10.12723332
  1 15549      10.07223234
  1 15202      10.05182397
  1 15553       9.98479384
  1 15199       9.92435226
  1 15556       9.86391068
  1 15563       9.77299877
  1 15557       9.68208687
  1 15562       9.58118454
  1 15572       9.47760799
  1 15566       9.39033658
  1 15567       9.30543519
  1 15573       9.20392462
  1 15589       9.10295320
  1 15575       9.05008180
  1 15588       8.99652499
  1 15578       8.89472177
  1 15585       8.79291854
  1 15579       8.69111532
  1 15584       8.58931209
  1 15595       8.48818394
  1 15594       8.38782664
  1 15599       8.28613949
  1 15598       8.18403516
  1 15604       8.08037084
  1 15222       7.98317563
  1 15605       7.93598958
  1 15607       7.92255580
  1 15603       7.86008073
  1 15606       7.75267648
  1 15228       7.64553107
  1 15227       7.54143844
  1 15236       7.45547576
  1 15231       7.37150349
  1 15235       7.27107843
  1 15232       7.21274678
  1 15230       7.16253425
  1 15621       7.06603792
  1 15238       6.99213057
  1 15620       6.92331090
  1 15241       6.81996358
  1 15247       6.76121461
  1 15242       6.70246565
  1 15637       6.58492487
  1 15623       6.51197246
  1 15632       6.49619499
  1 15626       6.42777507
  1 15630       6.30204773
  1 15629       6.23051782
  1 15923       6.21242059
  1 15920       6.19383783
  1 15921       6.12436889
  1 15927       6.01216155
  1 15926       5.90605983
  1 15939       5.80029539
  1 15930       5.74612044
  1 15938       5.69128001
  1 15942       5.58953541
  1 15948       5.48351806
  1 15943       5.37729910
  1 15937       5.32485628
  1 15949       5.27362121
  1 15951       5.21504451
  1 15947       5.19589459
  1 15950       5.12343910
  1 15656       4.99927220
  1 15650       4.87545477
  1 15658       4.80567311
  1 15652       4.74235568
  1 15653       4.67066104
  1 15654       4.61003238
  1 15264       4.50222857
  1 15261       4.43842698
  1 15263       4.38276759
  1 15262       4.31239982
  1 15268       4.24580899
  1 15269       4.14428861
  1 15278       4.04250393
  1 15272       3.94002756
  1 15273       3.83796276
  1 15669       3.73650888
  1 15279       3.66020308
  1 15290       3.62839171
  1 15281       3.59482728
  1 15285       3.51366823
  1 15284       3.40662486
  1 15675       3.29416975
  1 15670       3.18116881
  1 15672       3.12383002
  1 15684       3.07953288
  1 15676       3.01102154
  1 15679       2.94592572
  1 15970       2.84433960
  1 15686       2.75699456
  1 15967       2.72627047
  1 15687       2.66221301
  1 15973       2.55027464
  1 15971       2.48615029
  1 15982       2.43869098
  1 15978       2.37593456
  1 15981       2.31094872
  1 15988       2.21991250
  1 15984       2.14795174
  1 15987       2.07171183
  1 15996       1.96655057
  1 15997       1.86073977
  1 16003       1.75293749
  1 16000       1.69679264
  1 16005       1.68618120
  1 15998       1.62282869
  1 16004       1.50682453
  1 15999       1.41188518
  1 15993       1.35212941
  1 15712       1.27815196
  1 16006       1.18988434
  1 15714       1.14011159
  1 15702       1.10833059
  1 15703       1.02772704
  1 15710       0.90620261
  1 15713       0.80509040
  1 15707       0.74437398
  1 15709       0.65411855
  1 15711       0.58271651
  1 15309       0.52652408
  1 15303       0.47065523
  1 15311       0.41221252
  1 15306       0.29280970
END period  1

