BEGIN options
  SAVE_FLOWS
END options

BEGIN dimensions
  MAXBOUND  213
END dimensions

BEGIN period  1
  1 1710     175.46292075
  1 1713     171.70611616
  1 1720     169.38247637
  1 1716     165.34455259
  1 1717     156.50113715
  1 1718     155.49377046
  1 1719     153.35206531
  1 1727     152.06003609
  1 1726     150.77123940
  1 1730     149.48246101
  1 1731     148.18538619
  1 1734     146.74678182
  1 1736     145.94416691
  1 1609     145.27421075
  1 1607     143.91942159
  1 1601     143.06656508
  1 1602     142.12768182
  1 1605     141.19465370
  1 1603     140.25449340
  1 1604     139.38117787
  1 1445     138.63453407
  1 1450     137.31830357
  1 1451     136.02064148
  1 1454     134.71320966
  1 1455     133.39516327
  1 1464     132.15486306
  1 1466     131.44063547
  1 1465     130.75171657
  1 1459     128.17714500
  1 1462     127.14913519
  1 1259     124.58466331
  1 1460     123.78049904
  1 1257     123.27918475
  1 1258     122.73631077
  1 1255     122.20442718
  1 1263     121.62962667
  1 1262     120.65312864
  1 1264     120.11390678
  1 1086     117.99847080
  1 1265     116.93481397
  1 1085     116.15246281
  1 1087     115.42735665
  1 1090     113.50325462
  1 1091     112.58565614
  1 1096     111.67009121
  1 1093     111.10217872
  1 1095     110.68295757
  1 1097     110.17435752
  1 1106     108.23354978
  1 1107     106.81978692
  1 1101     105.85141988
  1 1104     104.00000000
  1 1105     103.00444746
  1 1113     101.71025032
  1 1111      98.59599837
  1 953      98.16573250
  1 954      97.88267952
  1 1112      97.47821154
  1 1115      96.98467759
  1 1116      96.32526144
  1 1121      95.77413024
  1 1124      95.22029601
  1 1123      94.79908422
  1 1127      94.00000000
  1 1128      94.00000000
  1 1131      94.00000000
  1 1139      94.00000000
  1 1136      94.00000000
  1 1140      93.04155500
  1 1143      91.25779211
  1 1144      89.00000000
  1 1146      89.00000000
  1 1151      89.00000000
  1 1152      89.00000000
  1 1156      89.00000000
  1 1155      87.57216596
  1 1308      83.50645849
  1 1313      82.34847590
  1 1314      80.97041345
  1 1317      79.00000000
  1 1318      79.00000000
  1 1320      78.57397824
  1 1328      77.81717875
  1 1325      76.99342240
  1 1329      75.86550519
  1 1332      73.49895209
  1 1340      72.49461276
  1 1333      71.65192535
  1 1335      71.15689811
  1 1341      70.49383689
  1 1344      67.77518596
  1 1345      64.00000000
  1 1350      64.00000000
  1 1351      64.00000000
  1 1354      64.00000000
  1 1355      63.02866467
  1 1360      61.04691670
  1 1535      59.00000000
  1 1361      59.00000000
  1 1538      59.00000000
  1 1539      58.42905071
  1 1544      57.47349338
  1 1367      56.76497520
  1 1368      55.79703716
  1 1371      54.00000000
  1 1372      53.48979059
  1 1377      52.47962155
  1 1378      51.49416834
  1 1381      50.90360319
  1 1379      50.40199763
  1 1380      49.00000000
  1 1391      49.00000000
  1 1392      49.00000000
  1 1386      49.00000000
  1 1389      49.00000000
  1 1390      48.15974890
  1 1398      46.47832059
  1 1399      44.00000000
  1 1402      43.21820388
  1 1400      42.23412933
  1 1401      41.75966693
  1 1403      39.83326817
  1 1408      39.61772646
  1 1406      39.00000000
  1 1183      39.00000000
  1 1407      39.00000000
  1 1187      38.18259600
  1 1186      36.55166292
  1 1195      35.29828166
  1 1193      34.00000000
  1 1194      34.00000000
  1 1191      34.00000000
  1 1197      34.00000000
  1 1192      32.71840159
  1 1204      30.24084003
  1 1203      32.74493658
  1 1207      29.00000000
  1 1208      29.00000000
  1 1213      29.00000000
  1 1212      29.00000000
  1 1214      29.00000000
  1 1216      29.00000000
  1 1215      29.00000000
  1 1221      29.00000000
  1 1222      29.00000000
  1 992      28.61839845
  1 995      27.53291000
  1 996      26.12812615
  1 1004      23.63714035
  1 1003      23.01435422
  1 1005      22.63446449
  1 1006      22.13394334
  1 1007      21.49694010
  1 1012      20.85257667
  1 1001      20.34668252
  1 1013      19.99303918
  1 1014      18.70709873
  1 1011      18.28434338
  1 1015      17.87630952
  1 1020      17.41676769
  1 833      16.94503845
  1 832      16.55089749
  1 836      16.15475172
  1 835      15.61755779
  1 837      15.33608755
  1 843      15.02151972
  1 844      14.44715938
  1 847      14.08889454
  1 842      13.74585889
  1 841      12.85733773
  1 854      12.53962620
  1 853      12.19685919
  1 861      11.85452558
  1 857      11.66215756
  1 860      11.48452935
  1 866      11.15472480
  1 867      10.81808447
  1 870      10.48334256
  1 871      10.14636272
  1 877       9.80963884
  1 876       9.47466485
  1 880       9.13406720
  1 886       8.79409604
  1 881       8.45883016
  1 887       8.11750112
  1 890       7.76461113
  1 891       7.41562209
  1 896       7.07238005
  1 897       6.69848141
  1 902       6.27931567
  1 900       6.04419499
  1 1049       5.87592960
  1 903       5.69886832
  1 1054       5.50266500
  1 912       5.15646392
  1 1055       4.94539328
  1 915       4.83973356
  1 913       4.56557544
  1 907       4.35129678
  1 908       4.17284348
  1 922       3.91956789
  1 919       3.74755783
  1 923       3.47776947
  1 926       3.17239312
  1 928       2.96828040
  1 929       2.70413692
  1 1063       2.49185919
  1 1068       2.26800658
  1 1069       1.89449518
  1 935       1.63387979
  1 1072       1.43585801
  1 936       1.12160555
  1 941       0.70227670
END period  1

