BEGIN options
  SAVE_FLOWS
END options

BEGIN dimensions
  MAXBOUND  431
END dimensions

BEGIN period  1
  1 3977     177.48829334
  1 4149     174.69530785
  1 4154     172.29567523
  1 4155     169.60237215
  1 3979     166.55162344
  1 3980     159.38061444
  1 3981     158.76008180
  1 3982     158.11098804
  1 3986     156.84602530
  1 3985     154.61593012
  1 3994     153.84926487
  1 3990     153.08373481
  1 3991     152.31786541
  1 4001     151.55235861
  1 3995     150.78723734
  1 4000     150.02213902
  1 4005     149.24644673
  1 4004     148.47072384
  1 4010     147.55734917
  1 4013     147.00634849
  1 4009     146.63416592
  1 4008     146.23171150
  1 3841     145.79461824
  1 3838     145.23931979
  1 3839     144.85027435
  1 3835     144.40399709
  1 3834     143.73647077
  1 3836     143.12863912
  1 3674     142.78302335
  1 3676     142.13763411
  1 3677     141.21382336
  1 3678     140.74387742
  1 3687     140.55930856
  1 3681     139.97990190
  1 3683     139.47990292
  1 3682     139.30030630
  1 3680     138.76286151
  1 3506     137.92607500
  1 3507     137.13214412
  1 3510     136.56331169
  1 3512     136.17658146
  1 3511     135.56772080
  1 3516     134.87291784
  1 3514     134.48956426
  1 3517     134.10208361
  1 3520     133.39126441
  1 3515     132.92390692
  1 3525     132.45333540
  1 3521     131.66885015
  1 3524     130.89596157
  1 3530     130.00000000
  1 3536     130.00000000
  1 3531     130.00000000
  1 3532     130.00000000
  1 3534     130.00000000
  1 3533     130.00000000
  1 3302     130.00000000
  1 3304     129.65903637
  1 3310     129.17049217
  1 3053     128.65099215
  1 3307     127.95178013
  1 3055     127.61863052
  1 3305     127.28548092
  1 3054     126.63675187
  1 3047     126.12594579
  1 3048     125.80257141
  1 3050     125.38153067
  1 3049     124.79098573
  1 2832     124.31660928
  1 2839     123.74749632
  1 2840     123.02231486
  1 2838     122.62376039
  1 2836     122.20223590
  1 2842     121.79167730
  1 2837     121.61456298
  1 2835     121.11734974
  1 2612     120.00000000
  1 2846     120.00000000
  1 2613     120.00000000
  1 2611     119.27826580
  1 2608     117.95265613
  1 2614     117.34076773
  1 2609     116.75466050
  1 2620     115.00000000
  1 2621     114.69206783
  1 2624     114.07707481
  1 2636     113.45951816
  1 2625     112.93009873
  1 2628     112.61968859
  1 2637     112.22040738
  1 2634     111.79689947
  1 2640     111.47799365
  1 2635     110.95805509
  1 2647     109.54123523
  1 2646     108.63665101
  1 2650     108.05949922
  1 2648     107.42830467
  1 2414     106.54952579
  1 2649     106.03782720
  1 2420     105.00000000
  1 2419     105.00000000
  1 2421     105.00000000
  1 2423     105.00000000
  1 2433     105.00000000
  1 2422     103.71630974
  1 2428      99.81607843
  1 2427      99.53596889
  1 2426      99.25354167
  1 2284      99.03698495
  1 2287      98.79055449
  1 2430      98.40397215
  1 2288      98.15319888
  1 2438      97.95192758
  1 2441      97.64327779
  1 2440      97.36501566
  1 2444      97.09193197
  1 2450      96.71300943
  1 2445      96.33714316
  1 2457      95.97251206
  1 2451      95.70951510
  1 2454      95.51055833
  1 2463      95.00000000
  1 2458      95.00000000
  1 2469      95.00000000
  1 2464      95.00000000
  1 2466      95.00000000
  1 2669      95.00000000
  1 2470      95.00000000
  1 2674      95.00000000
  1 2476      95.00000000
  1 2475      95.00000000
  1 2675      95.00000000
  1 2678      95.00000000
  1 2680      95.00000000
  1 2681      94.38958989
  1 2686      93.13941788
  1 2687      91.88043985
  1 2690      90.00000000
  1 2697      90.00000000
  1 2691      90.00000000
  1 2702      90.00000000
  1 2706      90.00000000
  1 2703      90.00000000
  1 2707      90.00000000
  1 2718      90.00000000
  1 2712      89.96341314
  1 2715      89.21291055
  1 2714      87.82166360
  1 2889      86.83064072
  1 2890      84.57212098
  1 2895      83.75321127
  1 2896      82.93893079
  1 2902      82.09772089
  1 2899      81.33236879
  1 2901      80.87577827
  1 2908      80.00000000
  1 2907      80.00000000
  1 2911      80.00000000
  1 2915      80.00000000
  1 2914      79.92201042
  1 3116      79.23580622
  1 2920      78.51398837
  1 2923      78.26438695
  1 2922      77.47152968
  1 3119      76.46880001
  1 3128      74.78293417
  1 3121      74.46854645
  1 3127      74.15090386
  1 3122      73.71026249
  1 3141      73.26666224
  1 3131      72.82731726
  1 3140      72.39518643
  1 3132      72.09891336
  1 3135      71.88284863
  1 3145      71.62148317
  1 3144      71.27063663
  1 3153      70.82873917
  1 3147      70.52006873
  1 3152      69.19219544
  1 3156      67.51758046
  1 3157      65.00000000
  1 3162      65.00000000
  1 3163      65.00000000
  1 3161      65.00000000
  1 3164      65.00000000
  1 3165      65.00000000
  1 3170      65.00000000
  1 3172      65.00000000
  1 3176      64.59523407
  1 3173      63.78593925
  1 3182      63.05802344
  1 3177      62.32523804
  1 3180      61.83028033
  1 3183      61.30675250
  1 3423      60.00000000
  1 3186      60.00000000
  1 3187      60.00000000
  1 3428      60.00000000
  1 3429      60.00000000
  1 3434      60.00000000
  1 3432      59.99366179
  1 3435      59.85017151
  1 3438      59.31007359
  1 3433      58.71800954
  1 3197      58.16496044
  1 3439      57.77184843
  1 3198      57.48324272
  1 3200      57.08016067
  1 3199      56.61598541
  1 3204      55.97717760
  1 3205      55.00000000
  1 3210      55.25566943
  1 3208      55.66906707
  1 3209      56.23356870
  1 3211      56.67298564
  1 3214      57.13195437
  1 3215      57.96763709
  1 3218      58.78300769
  1 3219      60.00000000
  1 3230      59.47632309
  1 3224      58.22739210
  1 3225      53.76228271
  1 3229      50.00000000
  1 3228      50.00000000
  1 3236      50.00000000
  1 3237      50.00000000
  1 3235      50.00000000
  1 3239      50.00000000
  1 2948      50.00000000
  1 2947      50.00000000
  1 2953      50.00000000
  1 2957      50.00000000
  1 2954      50.00000000
  1 2958      49.50421381
  1 2956      48.86450664
  1 2961      48.11014696
  1 2962      46.86162415
  1 2965      45.00000000
  1 2966      45.00000000
  1 2977      45.00000000
  1 2972      45.00000000
  1 2978      45.00000000
  1 2975      45.00000000
  1 2982      45.00000000
  1 2981      45.00000000
  1 2993      44.40760565
  1 2987      42.78331862
  1 2988      40.00000000
  1 2986      40.00000000
  1 2752      40.00000000
  1 2989      40.00000000
  1 2751      40.00000000
  1 2750      40.00000000
  1 2761      40.00000000
  1 2756      40.00000000
  1 2760      39.39404726
  1 2757      38.18214179
  1 2772      36.92749121
  1 2767      35.00000000
  1 2773      35.00000000
  1 2771      35.00000000
  1 2770      35.00000000
  1 2513      35.00000000
  1 2769      35.00000000
  1 2778      35.00000000
  1 2777      35.00000000
  1 2517      35.00000000
  1 2516      35.00000000
  1 2524      35.00000000
  1 2522      35.00000000
  1 2521      34.06577500
  1 2520      32.48752401
  1 2530      30.00000000
  1 2525      30.00000000
  1 2531      30.00000000
  1 2534      30.00000000
  1 2544      30.00000000
  1 2535      30.00000000
  1 2543      30.00000000
  1 2542      30.00000000
  1 2547      30.00000000
  1 2548      30.00000000
  1 2558      30.00000000
  1 2553      30.00000000
  1 2557      30.00000000
  1 2554      30.00000000
  1 2561      30.00000000
  1 2563      30.00000000
  1 2562      30.00000000
  1 2565      30.00000000
  1 2340      29.73333201
  1 2339      29.45610608
  1 2345      29.19025694
  1 2349      28.68009960
  1 2346      28.16916634
  1 2356      27.65652966
  1 2350      27.37455964
  1 2348      27.12023903
  1 2357      26.62946135
  1 2355      26.09463297
  1 2360      25.65026743
  1 2354      25.38047903
  1 2366      25.04786744
  1 2368      24.54513919
  1 2364      24.23575201
  1 2365      23.92625583
  1 2186      23.38867666
  1 2369      23.02183556
  1 2178      22.75539874
  1 2185      22.49106247
  1 2187      22.20579432
  1 2189      21.99111929
  1 2188      21.65441376
  1 2194      21.06757622
  1 2183      20.55239392
  1 2195      19.93521324
  1 2196      19.76360883
  1 2193      19.61141200
  1 2202      19.45841003
  1 2197      19.24456717
  1 1938      19.04417841
  1 2203      18.91874094
  1 1937      18.77673105
  1 1934      18.58651733
  1 1944      18.39459898
  1 1936      18.26469228
  1 1942      18.16402710
  1 1945      17.96936236
  1 1948      17.82983560
  1 1954      17.69751250
  1 1943      17.48896898
  1 1957      17.26624155
  1 1955      17.03921970
  1 1956      16.86867728
  1 1958      16.76009605
  1 1962      16.66612973
  1 1801      16.51232247
  1 1797      16.33665039
  1 1798      16.15873154
  1 1802      15.94112616
  1 1811      15.72468150
  1 1807      15.51255110
  1 1808      15.30338405
  1 1980      15.09179374
  1 1812      14.87402354
  1 1979      14.74087705
  1 1817      14.69635460
  1 1977      14.58583521
  1 1973      14.40883123
  1 1974      14.20944384
  1 1986      13.99279624
  1 1985      13.78087143
  1 1989      13.57054745
  1 1995      13.36245669
  1 1990      13.15502006
  1 2000      12.94643667
  1 1996      12.73573295
  1 1999      12.52423386
  1 2007      12.31413606
  1 2005      12.10552762
  1 2004      11.91373010
  1 2006      11.80946991
  1 2013      11.77973200
  1 2008      11.66182826
  1 2016      11.45083386
  1 2015      11.24759803
  1 2025      11.04644508
  1 2019      10.83723088
  1 2020      10.62684819
  1 2026      10.41793998
  1 2029      10.20898132
  1 2030       9.99367985
  1 2034       9.77300858
  1 2035       9.58406292
  1 2033       9.46987356
  1 2037       9.32734914
  1 2043       9.11470751
  1 2038       8.90496770
  1 2050       8.66419131
  1 2044       8.41552156
  1 2049       8.29738832
  1 2047       8.18572773
  1 2058       7.95444884
  1 2055       7.80921802
  1 2061       7.66257041
  1 2059       7.51457344
  1 2226       7.38690292
  1 2064       7.24961210
  1 2225       7.13597424
  1 2231       6.94837521
  1 2232       6.73379154
  1 2071       6.54650849
  1 2235       6.42368166
  1 2072       6.28554354
  1 2078       6.10774691
  1 2070       5.97370564
  1 2075       5.82945096
  1 2074       5.59887689
  1 2076       5.43860807
  1 1861       5.40194715
  1 1864       5.28399560
  1 1865       5.07247749
  1 2084       4.86352197
  1 1870       4.65370889
  1 1871       4.54354000
  1 2088       4.46438478
  1 2087       4.27933122
  1 2095       4.04825461
  1 2090       3.88654283
  1 2099       3.74529763
  1 2096       3.61121278
  1 2104       3.50846891
  1 2102       3.37611663
  1 2248       3.27710708
  1 2105       3.14472065
  1 2253       2.91925167
  1 2256       2.67980338
  1 2255       2.56435303
  1 2259       2.45577755
  1 2260       2.27885784
  1 2115       2.10305096
  1 2258       1.95494702
  1 2264       1.88948604
  1 2263       1.74558307
  1 2117       1.49752345
  1 2118       1.28694179
  1 2116       1.16349987
  1 2122       1.02292178
  1 2126       0.89611445
  1 2121       0.76181054
  1 2123       0.59000931
END period  1

