BEGIN options
  SAVE_FLOWS
END options

BEGIN dimensions
  MAXBOUND  213
END dimensions

BEGIN period  1
  1 2903     162.87456569
  1 2906     161.67921878
  1 2917     160.93987884
  1 2911     159.65508491
  1 2912     156.50113715
  1 2915     155.49377046
  1 2916     153.35206531
  1 2925     152.06003609
  1 2924     150.77123940
  1 2928     149.48246101
  1 2929     148.18538619
  1 2932     146.74678182
  1 2934     145.94416691
  1 2778     145.27421075
  1 2776     143.91942159
  1 2770     143.06656508
  1 2771     142.12768182
  1 2774     141.19465370
  1 2772     140.25449340
  1 2773     139.38117787
  1 2589     138.63453407
  1 2594     137.31830357
  1 2595     136.02064148
  1 2598     134.71320966
  1 2599     133.39516327
  1 2608     132.15486306
  1 2610     131.44063547
  1 2609     130.75171657
  1 2603     128.17714500
  1 2606     127.14913519
  1 2381     124.58466331
  1 2604     123.78049904
  1 2379     123.27918475
  1 2380     122.73631077
  1 2377     122.20442718
  1 2385     121.62962667
  1 2384     120.65312864
  1 2386     120.11390678
  1 2188     117.99847080
  1 2387     116.93481397
  1 2187     116.15246281
  1 2189     115.42735665
  1 2192     113.50325462
  1 2193     112.58565614
  1 2198     111.67009121
  1 2195     111.10217872
  1 2197     110.68295757
  1 2199     110.17435752
  1 2208     108.23354978
  1 2209     106.81978692
  1 2203     105.85141988
  1 2206     104.00000000
  1 2207     103.00444746
  1 2215     101.71025032
  1 2213      98.59599837
  1 2029      98.16573250
  1 2030      97.88267952
  1 2214      97.47821154
  1 2217      96.98467759
  1 2218      96.32526144
  1 2223      95.77413024
  1 2226      95.22029601
  1 2225      94.79908422
  1 2229      94.00000000
  1 2230      94.00000000
  1 2233      94.00000000
  1 2241      94.00000000
  1 2238      94.00000000
  1 2242      93.04155500
  1 2245      91.25779211
  1 2246      89.00000000
  1 2248      89.00000000
  1 2253      89.00000000
  1 2254      89.00000000
  1 2258      89.00000000
  1 2257      87.57216596
  1 2430      83.50645849
  1 2435      82.34847590
  1 2436      80.97041345
  1 2439      79.00000000
  1 2440      79.00000000
  1 2442      78.57397824
  1 2450      77.81717875
  1 2447      76.99342240
  1 2451      75.86550519
  1 2454      73.49895209
  1 2462      72.49461276
  1 2455      71.65192535
  1 2457      71.15689811
  1 2463      70.49383689
  1 2466      67.77518596
  1 2467      64.00000000
  1 2472      64.00000000
  1 2473      64.00000000
  1 2476      64.00000000
  1 2477      63.02866467
  1 2482      61.04691670
  1 2679      59.00000000
  1 2483      59.00000000
  1 2682      59.00000000
  1 2683      58.42905071
  1 2688      57.47349338
  1 2489      56.76497520
  1 2490      55.79703716
  1 2493      54.00000000
  1 2494      53.48979059
  1 2499      52.47962155
  1 2500      51.49416834
  1 2503      50.90360319
  1 2501      50.40199763
  1 2502      49.00000000
  1 2513      49.00000000
  1 2514      49.00000000
  1 2508      49.00000000
  1 2511      49.00000000
  1 2512      48.15974890
  1 2520      46.47832059
  1 2521      44.00000000
  1 2524      43.21820388
  1 2522      42.23412933
  1 2523      41.75966693
  1 2525      39.83326817
  1 2530      39.61772646
  1 2528      39.00000000
  1 2285      39.00000000
  1 2529      39.00000000
  1 2289      38.18259600
  1 2288      36.55166292
  1 2297      35.29828166
  1 2295      34.00000000
  1 2296      34.00000000
  1 2293      34.00000000
  1 2299      34.00000000
  1 2294      32.71840159
  1 2306      30.24084003
  1 2305      32.74493658
  1 2309      29.00000000
  1 2310      29.00000000
  1 2315      29.00000000
  1 2314      29.00000000
  1 2316      29.00000000
  1 2318      29.00000000
  1 2317      29.00000000
  1 2323      29.00000000
  1 2324      29.00000000
  1 2068      28.61839845
  1 2071      27.53291000
  1 2072      26.12812615
  1 2080      23.63714035
  1 2079      23.01435422
  1 2081      22.63446449
  1 2082      22.13394334
  1 2083      21.49694010
  1 2088      20.85257667
  1 2077      20.34668252
  1 2089      19.99303918
  1 2090      18.70709873
  1 2087      18.28434338
  1 2091      17.87630952
  1 2096      17.41676769
  1 1889      16.94503845
  1 1888      16.55089749
  1 1892      16.15475172
  1 1891      15.61755779
  1 1893      15.33608755
  1 1899      15.02151972
  1 1900      14.44715938
  1 1903      14.08889454
  1 1898      13.74585889
  1 1897      12.85733773
  1 1910      12.53962620
  1 1909      12.19685919
  1 1917      11.85452558
  1 1913      11.66215756
  1 1916      11.48452935
  1 1922      11.15472480
  1 1923      10.81808447
  1 1926      10.48334256
  1 1927      10.14636272
  1 1933       9.80963884
  1 1932       9.47466485
  1 1936       9.13406720
  1 1942       8.79409604
  1 1937       8.45883016
  1 1943       8.11750112
  1 1946       7.76461113
  1 1947       7.41562209
  1 1952       7.07238005
  1 1953       6.69848141
  1 1958       6.27931567
  1 1956       6.04419499
  1 2125       5.87592960
  1 1959       5.69886832
  1 2130       5.50266500
  1 1968       5.15646392
  1 2131       4.94539328
  1 1971       4.83973356
  1 1969       4.56557544
  1 1963       4.35129678
  1 1964       4.17284348
  1 1978       3.91956789
  1 1975       3.74755783
  1 1979       3.47776947
  1 1982       3.17239312
  1 1984       2.96828040
  1 1985       2.70413692
  1 2139       2.49185919
  1 2144       2.26800658
  1 2145       1.89449518
  1 1991       1.63387979
  1 2148       1.43585801
  1 1992       1.12160555
  1 1998       0.70227670
END period  1

