# LPF package for  MODFLOW-2005, generated by Flopy.
         0    -1E+30         0  
         0
         0
   1.000000E+00
         0
         0
INTERNAL               1  (10E15.6) -1 #hk layer 1                    
   5.604652E-06   1.886505E-05   1.344985E-05   4.127332E-08   1.877323E-05   1.647036E-05   1.798622E-05   4.272554E-06   1.113539E-04   5.972255E-06
   4.351119E-07   1.119431E-05   5.237184E-05   5.138704E-05   2.620992E-06   1.242365E-05   6.114042E-05   5.061772E-05   1.731981E-05   1.017676E-06
   3.851225E-05   3.846062E-05   5.150695E-05   8.072397E-06   6.917239E-06   7.419379E-07   3.706222E-06   2.582115E-05   1.858777E-04   3.793041E-05
   2.285774E-05   1.963233E-05   2.364369E-04   9.453019E-05   1.322388E-04   1.842367E-05   6.111474E-05   1.956437E-05   5.238938E-06   1.122411E-05
   8.763144E-06   8.501229E-06   8.585077E-06   1.493344E-04   3.155006E-05   3.227136E-05   5.757486E-06   2.639740E-05   2.422697E-04   6.376745E-06
   1.618222E-05   1.862219E-05   5.738510E-06   1.120172E-05   1.357434E-06   7.976852E-05   1.469699E-05   1.428620E-04   2.456183E-05   7.062006E-05
   6.109870E-05   1.064614E-07   1.410255E-05   4.251016E-05   1.727480E-05   3.736318E-05   2.511358E-04   7.722059E-05   7.685821E-06   4.238402E-07
   2.945049E-05   5.952988E-05   3.375619E-05   4.016372E-06   4.253804E-05   8.493359E-05   2.604344E-05   1.511459E-06   8.906810E-05   4.480613E-05
   4.833671E-05   1.374308E-05   6.164369E-05   2.037397E-06   3.769992E-05   8.453958E-06   1.201358E-05   3.601781E-05   4.171803E-05   1.726229E-04
   8.546240E-05   5.331682E-07   5.811346E-05   2.195336E-05   5.825226E-05   4.272434E-05   9.269814E-06   1.123513E-05   8.585260E-05   1.599421E-05
CONSTANT    1.000000E+00                           #vka1                          
