# LPF package for  MODFLOW-2005, generated by Flopy.
         0    -1E+30         0  
         0
         0
   1.000000E+00
         0
         0
INTERNAL               1  (10E15.6) -1 #hk layer 1                    
   2.182161E-06   1.234932E-05   1.810555E-06   8.674857E-05   2.327606E-05   1.075523E-05   1.749018E-05   1.397377E-05   1.098124E-06   7.140193E-07
   3.893697E-05   8.112397E-05   8.787275E-05   3.445740E-06   1.044390E-04   1.934837E-05   9.749654E-06   3.395769E-05   4.563175E-04   7.848397E-06
   3.119962E-06   1.450031E-04   2.659532E-05   2.324214E-05   2.429613E-05   4.288284E-05   9.419185E-05   3.955911E-05   1.677516E-05   6.560083E-06
   4.703578E-05   9.215146E-05   2.431870E-05   1.286029E-05   1.214558E-05   1.012183E-05   6.063078E-06   9.111931E-05   1.937480E-06   1.430674E-05
   1.207868E-05   5.594970E-05   9.478907E-06   1.671801E-05   9.170359E-05   1.201471E-04   2.023375E-04   1.302881E-05   1.498565E-04   2.183004E-05
   5.167284E-07   1.073373E-04   1.804710E-06   6.385145E-05   3.835142E-05   2.852442E-05   2.145448E-04   2.836792E-06   2.356105E-05   7.497935E-05
   3.616422E-06   1.882181E-06   3.218975E-05   2.236665E-05   2.627379E-05   4.117230E-04   2.908721E-06   4.025452E-05   3.050789E-05   6.522307E-05
   1.697712E-05   4.359532E-05   1.332610E-04   2.724765E-06   4.168891E-05   3.595330E-05   9.244961E-05   2.344341E-05   1.826468E-05   5.253627E-06
   7.639132E-06   1.310387E-04   3.563794E-06   2.989933E-05   2.738594E-06   2.565211E-05   1.520454E-04   2.152593E-05   1.713758E-05   8.879944E-06
   7.348922E-05   5.419879E-06   2.623751E-05   1.785790E-05   1.738483E-05   1.235084E-05   9.133599E-06   9.092687E-06   2.917084E-06   3.796849E-05
CONSTANT    1.000000E+00                           #vka1                          
