# Name file for MODFLOW-2005, generated by Flopy version 3.3.0.
#xll:0.0; yll:0.0; rotation:0.0; units:meters; lenuni:2; start_datetime:1-1-1970
LIST               2  mf2005_pst.list
DIS               11  mf2005_pst.dis
LPF               15  mf2005_pst.lpf
BAS6              13  mf2005_pst.bas
PCG               27  mf2005_pst.pcg
OC                14  mf2005_pst.oc
DATA(BINARY)      51  mf2005_pst.hds REPLACE
