ptf ~ 
# LPF package for  MODFLOW-2005, generated by Flopy.
         0    -1E+30         0  
         0
         0
   1.000000E+00
         0
         0
INTERNAL               1  (10E15.6) -1 #hk layer 1                    
~  kh0_0     ~ ~  kh0_1     ~ ~  kh0_2     ~ ~  kh0_3     ~ ~  kh0_4     ~ ~  kh0_5     ~ ~  kh0_6     ~ ~  kh0_7     ~ ~  kh0_8     ~ ~  kh0_9     ~ 
~  kh1_0     ~ ~  kh1_1     ~ ~  kh1_2     ~ ~  kh1_3     ~ ~  kh1_4     ~ ~  kh1_5     ~ ~  kh1_6     ~ ~  kh1_7     ~ ~  kh1_8     ~ ~  kh1_9     ~ 
~  kh2_0     ~ ~  kh2_1     ~ ~  kh2_2     ~ ~  kh2_3     ~ ~  kh2_4     ~ ~  kh2_5     ~ ~  kh2_6     ~ ~  kh2_7     ~ ~  kh2_8     ~ ~  kh2_9     ~ 
~  kh3_0     ~ ~  kh3_1     ~ ~  kh3_2     ~ ~  kh3_3     ~ ~  kh3_4     ~ ~  kh3_5     ~ ~  kh3_6     ~ ~  kh3_7     ~ ~  kh3_8     ~ ~  kh3_9     ~ 
~  kh4_0     ~ ~  kh4_1     ~ ~  kh4_2     ~ ~  kh4_3     ~ ~  kh4_4     ~ ~  kh4_5     ~ ~  kh4_6     ~ ~  kh4_7     ~ ~  kh4_8     ~ ~  kh4_9     ~ 
~  kh5_0     ~ ~  kh5_1     ~ ~  kh5_2     ~ ~  kh5_3     ~ ~  kh5_4     ~ ~  kh5_5     ~ ~  kh5_6     ~ ~  kh5_7     ~ ~  kh5_8     ~ ~  kh5_9     ~ 
~  kh6_0     ~ ~  kh6_1     ~ ~  kh6_2     ~ ~  kh6_3     ~ ~  kh6_4     ~ ~  kh6_5     ~ ~  kh6_6     ~ ~  kh6_7     ~ ~  kh6_8     ~ ~  kh6_9     ~ 
~  kh7_0     ~ ~  kh7_1     ~ ~  kh7_2     ~ ~  kh7_3     ~ ~  kh7_4     ~ ~  kh7_5     ~ ~  kh7_6     ~ ~  kh7_7     ~ ~  kh7_8     ~ ~  kh7_9     ~ 
~  kh8_0     ~ ~  kh8_1     ~ ~  kh8_2     ~ ~  kh8_3     ~ ~  kh8_4     ~ ~  kh8_5     ~ ~  kh8_6     ~ ~  kh8_7     ~ ~  kh8_8     ~ ~  kh8_9     ~ 
~  kh9_0     ~ ~  kh9_1     ~ ~  kh9_2     ~ ~  kh9_3     ~ ~  kh9_4     ~ ~  kh9_5     ~ ~  kh9_6     ~ ~  kh9_7     ~ ~  kh9_8     ~ ~  kh9_9     ~ 
CONSTANT    1.000000E+00                           #vka1                          
