BEGIN options
END options

BEGIN packages
  DIS6  test_mf6_pst.dis  dis
  IC6  test_mf6_pst.ic  ic
  OC6  test_mf6_pst.oc  oc
  NPF6  test_mf6_pst.npf  npf
  CHD6  bc.chd  chd
  OBS6  test_mf6_pst.obs  head_obs
END packages

