BEGIN options
  SAVE_FLOWS
END options

BEGIN dimensions
  MAXBOUND  86
END dimensions

BEGIN period  1
  2 69 73      25.60000000   3.74386344720e-03   23.60000000
  2 69 74      25.13184836   3.74386344720e-03   23.13184836
  2 69 75      24.62000000   3.74386344720e-03   22.62000000
  2 70 75      22.40942986   3.74386344720e-03   20.40942986
  2 70 76      20.37000000   3.74386344720e-03   18.37000000
  2 71 76      20.19417009   3.74386344720e-03   18.19417009
  2 72 76      20.07468719   3.74386344720e-03   18.07468719
  2 72 77      19.97200214   3.74386344720e-03   17.97200214
  2 73 77      19.86270343   3.74386344720e-03   17.86270343
  2 73 78      19.74464020   3.74386344720e-03   17.74464020
  2 73 79      19.66099762   3.74386344720e-03   17.66099762
  2 72 79      19.56856205   3.74386344720e-03   17.56856205
  2 72 80      19.40688763   3.74386344720e-03   17.40688763
  2 71 80      19.30916071   3.74386344720e-03   17.30916071
  2 71 81      19.20000000   3.74386344720e-03   17.20000000
  2 71 82      19.01550524   3.74386344720e-03   17.01550524
  2 72 82      18.89751564   3.74386344720e-03   16.89751564
  2 72 83      18.75615061   3.74386344720e-03   16.75615061
  2 73 83      18.60844022   3.74386344720e-03   16.60844022
  2 73 84      18.45662918   3.74386344720e-03   16.45662918
  2 72 84      18.34752214   3.74386344720e-03   16.34752214
  2 72 85      18.22570205   3.74386344720e-03   16.22570205
  2 72 86      18.00000000   3.74386344720e-03   16.00000000
  2 72 87      17.36334309   3.74386344720e-03   15.36334309
  2 72 88      16.72645036   3.74386344720e-03   14.72645036
  2 72 89      16.08867313   3.74386344720e-03   14.08867313
  2 72 90      15.45879481   3.74386344720e-03   13.45879481
  2 72 91      14.83066660   3.74386344720e-03   12.83066660
  2 72 92      14.35040858   3.74386344720e-03   12.35040858
  2 73 92      14.00000000   3.74386344720e-03   12.00000000
  2 73 93      13.18697347   3.74386344720e-03   11.18697347
  2 73 94      12.34100773   3.74386344720e-03   10.34100773
  2 74 94      11.63000000   3.74386344720e-03    9.63000000
  2 74 95      11.42213745   3.74386344720e-03    9.42213745
  2 75 95      11.26655586   3.74386344720e-03    9.26655586
  2 75 94      11.08414506   3.74386344720e-03    9.08414506
  2 76 94      10.96618866   3.74386344720e-03    8.96618866
  2 76 95      10.70228804   3.74386344720e-03    8.70228804
  2 76 96      10.45030147   3.74386344720e-03    8.45030147
  2 77 96      10.26386876   3.74386344720e-03    8.26386876
  2 77 97       9.91038714   3.74386344720e-03    7.91038714
  2 77 98       9.53666458   3.74386344720e-03    7.53666458
  2 77 99       9.16510717   3.74386344720e-03    7.16510717
  2 77 100       8.80000000   3.74386344720e-03    6.80000000
  2 77 101       8.53185193   3.74386344720e-03    6.53185193
  2 78 101       8.24626416   3.74386344720e-03    6.24626416
  2 78 102       7.98206670   3.74386344720e-03    5.98206670
  2 79 102       7.70292619   3.74386344720e-03    5.70292619
  2 79 103       7.35438191   3.74386344720e-03    5.35438191
  2 80 103       7.13934847   3.74386344720e-03    5.13934847
  2 80 104       6.82301221   3.74386344720e-03    4.82301221
  2 80 105       6.40746456   3.74386344720e-03    4.40746456
  2 80 106       6.00000000   3.74386344720e-03    4.00000000
  2 80 107       5.61644206   3.74386344720e-03    3.61644206
  2 80 108       5.22387440   3.74386344720e-03    3.22387440
  2 80 109       4.96441691   3.74386344720e-03    2.96441691
  2 79 109       4.69675423   3.74386344720e-03    2.69675423
  2 79 110       4.38000000   3.74386344720e-03    2.38000000
  2 78 110       4.18608434   3.74386344720e-03    2.18608434
  2 78 111       3.89130893   3.74386344720e-03    1.89130893
  2 78 112       3.69783749   3.74386344720e-03    1.69783749
  2 77 112       3.51020944   3.74386344720e-03    1.51020944
  2 77 113       3.17901700   3.74386344720e-03    1.17901700
  2 76 113       2.99379881   3.74386344720e-03    0.99379881
  2 76 114       2.76943601   3.74386344720e-03    0.76943601
  2 76 115       2.41767692   3.74386344720e-03    0.41767692
  2 76 116       2.17045438   3.74386344720e-03    0.17045438
  2 75 116       2.00378449   3.74386344720e-03    0.00378449
  2 75 117       1.74845398   3.74386344720e-03   -0.25154602
  2 75 118       1.40954421   3.74386344720e-03   -0.59045579
  2 75 119       1.09000000   3.74386344720e-03   -0.91000000
  2 74 119       1.04463112   3.74386344720e-03   -0.95536888
  2 74 120       0.99335994   3.74386344720e-03   -1.00664006
  2 74 121       0.90110056   3.74386344720e-03   -1.09889944
  2 74 122       0.83211018   3.74386344720e-03   -1.16788982
  2 73 122       0.78670227   3.74386344720e-03   -1.21329773
  2 73 123       0.71919446   3.74386344720e-03   -1.28080554
  2 73 124       0.63205158   3.74386344720e-03   -1.36794842
  2 73 125       0.54596037   3.74386344720e-03   -1.45403963
  2 73 126       0.46591116   3.74386344720e-03   -1.53408884
  2 72 126       0.40209047   3.74386344720e-03   -1.59790953
  2 72 127       0.35050686   3.74386344720e-03   -1.64949314
  2 71 127       0.27776848   3.74386344720e-03   -1.72223152
  2 71 128       0.22222786   3.74386344720e-03   -1.77777214
  2 70 128       0.17327348   3.74386344720e-03   -1.82672652
  2 70 129       0.10000000   3.74386344720e-03   -1.90000000
END period  1

