ptf ~
BEGIN options
  SAVE_FLOWS
END options

BEGIN dimensions
  MAXBOUND  47
END dimensions

BEGIN period  1
  2 117 6     180.00000000   ~    c_Bol     ~  178.00000000
  2 117 7     177.18393724   ~    c_Bol     ~  175.18393724
  2 116 7     175.00000000   ~    c_Bol     ~  173.00000000
  2 116 8     173.83246018   ~    c_Bol     ~  171.83246018
  2 116 9     171.91838051   ~    c_Bol     ~  169.91838051
  2 116 10     170.00000000   ~    c_Bol     ~  168.00000000
  2 116 11     165.47187242   ~    c_Bol     ~  163.47187242
  2 115 12     160.00000000   ~    c_Bol     ~  158.00000000
  2 115 13     158.20995910   ~    c_Bol     ~  156.20995910
  2 114 13     156.68662367   ~    c_Bol     ~  154.68662367
  2 114 14     155.00000000   ~    c_Bol     ~  153.00000000
  2 113 14     153.82564779   ~    c_Bol     ~  151.82564779
  2 113 15     152.30471968   ~    c_Bol     ~  150.30471968
  2 112 15     151.24050723   ~    c_Bol     ~  149.24050723
  2 112 16     150.00000000   ~    c_Bol     ~  148.00000000
  2 112 17     147.22620534   ~    c_Bol     ~  145.22620534
  2 111 17     145.00000000   ~    c_Bol     ~  143.00000000
  2 111 18     142.82586766   ~    c_Bol     ~  140.82586766
  2 110 18     141.50845673   ~    c_Bol     ~  139.50845673
  2 110 19     140.00000000   ~    c_Bol     ~  138.00000000
  2 110 20     138.03488440   ~    c_Bol     ~  136.03488440
  2 109 20     136.74037891   ~    c_Bol     ~  134.74037891
  2 109 21     135.00000000   ~    c_Bol     ~  133.00000000
  2 108 21     133.84853427   ~    c_Bol     ~  131.84853427
  2 108 22     132.61700791   ~    c_Bol     ~  130.61700791
  2 108 23     131.13402929   ~    c_Bol     ~  129.13402929
  2 107 23     130.00000000   ~    c_Bol     ~  128.00000000
  2 107 24     127.62103615   ~    c_Bol     ~  125.62103615
  2 107 25     125.00000000   ~    c_Bol     ~  123.00000000
  2 107 26     123.42123877   ~    c_Bol     ~  121.42123877
  2 106 26     122.16128682   ~    c_Bol     ~  120.16128682
  2 106 27     120.00000000   ~    c_Bol     ~  118.00000000
  2 106 28     115.00000000   ~    c_Bol     ~  113.00000000
  2 106 29     115.00000000   ~    c_Bol     ~  113.00000000
  2 106 30     113.32348991   ~    c_Bol     ~  111.32348991
  2 106 31     111.67151805   ~    c_Bol     ~  109.67151805
  2 106 32     110.00000000   ~    c_Bol     ~  108.00000000
  2 106 33     108.02176503   ~    c_Bol     ~  106.02176503
  2 105 33     106.75975264   ~    c_Bol     ~  104.75975264
  2 105 34     105.00000000   ~    c_Bol     ~  103.00000000
  2 105 35     103.35706113   ~    c_Bol     ~  101.35706113
  2 105 36     102.19305496   ~    c_Bol     ~  100.19305496
  2 104 36     101.29504168   ~    c_Bol     ~   99.29504168
  2 104 37     100.00000000   ~    c_Bol     ~   98.00000000
  2 103 37      98.27449197   ~    c_Bol     ~   96.27449197
  2 103 38      97.06700439   ~    c_Bol     ~   95.06700439
  2 102 38      95.00000000   ~    c_Bol     ~   93.00000000
END period  1

