BEGIN options
  SAVE_FLOWS
END options

BEGIN dimensions
  MAXBOUND  130
END dimensions

BEGIN period  1
  1 140 57     125.00000000   1.0000000000e-02  123.00000000
  1 140 58     124.22075546   1.0000000000e-02  122.22075546
  1 141 58     122.74242380   1.0000000000e-02  120.74242380
  1 141 59     120.00000000   1.0000000000e-02  118.00000000
  1 140 59     118.62436093   1.0000000000e-02  116.62436093
  1 140 60     118.25448571   1.0000000000e-02  116.25448571
  1 141 60     117.21256498   1.0000000000e-02  115.21256498
  1 142 60     116.02788190   1.0000000000e-02  114.02788190
  1 142 61     115.00000000   1.0000000000e-02  113.00000000
  1 142 62     110.00000000   1.0000000000e-02  108.00000000
  1 142 63     107.15867043   1.0000000000e-02  105.15867043
  1 142 64     104.00000000   1.0000000000e-02  102.00000000
  1 142 65     102.31241484   1.0000000000e-02  100.31241484
  1 141 65     101.36004674   1.0000000000e-02   99.36004674
  1 141 66     100.00000000   1.0000000000e-02   98.00000000
  1 141 67     100.00000000   1.0000000000e-02   98.00000000
  1 141 68      95.00000000   1.0000000000e-02   93.00000000
  1 140 68      93.94933755   1.0000000000e-02   91.94933755
  1 140 69      93.12647123   1.0000000000e-02   91.12647123
  1 141 69      92.15456643   1.0000000000e-02   90.15456643
  1 140 70      91.20648015   1.0000000000e-02   89.20648015
  1 139 70      90.00000000   1.0000000000e-02   88.00000000
  1 139 71      87.22838919   1.0000000000e-02   85.22838919
  1 138 71      85.00000000   1.0000000000e-02   83.00000000
  1 138 72      83.71911857   1.0000000000e-02   81.71911857
  1 138 73      82.54212533   1.0000000000e-02   80.54212533
  1 137 73      81.65338493   1.0000000000e-02   79.65338493
  1 137 74      80.00000000   1.0000000000e-02   78.00000000
  1 138 74      79.10873162   1.0000000000e-02   77.10873162
  1 138 75      78.13064594   1.0000000000e-02   76.13064594
  1 138 76      76.42584413   1.0000000000e-02   74.42584413
  1 138 77      75.00000000   1.0000000000e-02   73.00000000
  1 137 77      69.00000000   1.0000000000e-02   67.00000000
  1 136 77      69.00000000   1.0000000000e-02   67.00000000
  1 135 77      69.00000000   1.0000000000e-02   67.00000000
  1 135 78      69.00000000   1.0000000000e-02   67.00000000
  1 134 78      66.76772892   1.0000000000e-02   64.76772892
  1 135 79      65.00000000   1.0000000000e-02   63.00000000
  1 135 80      65.00000000   1.0000000000e-02   63.00000000
  1 134 80      65.00000000   1.0000000000e-02   63.00000000
  1 133 80      60.00000000   1.0000000000e-02   58.00000000
  1 133 81      58.79270125   1.0000000000e-02   56.79270125
  1 132 81      58.56488257   1.0000000000e-02   56.56488257
  1 132 80      57.85596280   1.0000000000e-02   55.85596280
  1 131 80      56.94704925   1.0000000000e-02   54.94704925
  1 131 81      56.22334218   1.0000000000e-02   54.22334218
  1 130 81      55.00000000   1.0000000000e-02   53.00000000
  1 130 82      53.16640078   1.0000000000e-02   51.16640078
  1 129 82      51.47793614   1.0000000000e-02   49.47793614
  1 128 82      50.29813647   1.0000000000e-02   48.29813647
  1 128 83      49.00000000   1.0000000000e-02   47.00000000
  1 127 83      48.07639001   1.0000000000e-02   46.07639001
  1 127 84      47.44016787   1.0000000000e-02   45.44016787
  1 126 84      46.38492046   1.0000000000e-02   44.38492046
  1 125 84      45.30838867   1.0000000000e-02   43.30838867
  1 125 85      44.69252484   1.0000000000e-02   42.69252484
  1 124 84      44.00000000   1.0000000000e-02   42.00000000
  1 124 85      41.76565090   1.0000000000e-02   39.76565090
  1 123 85      39.00000000   1.0000000000e-02   37.00000000
  1 122 85      37.64059105   1.0000000000e-02   35.64059105
  1 122 86      36.28718303   1.0000000000e-02   34.28718303
  1 121 86      35.24884695   1.0000000000e-02   33.24884695
  1 121 87      34.00000000   1.0000000000e-02   32.00000000
  1 121 88      33.39271807   1.0000000000e-02   31.39271807
  1 120 88      32.86689503   1.0000000000e-02   30.86689503
  1 120 89      31.92443083   1.0000000000e-02   29.92443083
  1 120 90      31.05021740   1.0000000000e-02   29.05021740
  1 120 91      30.18690567   1.0000000000e-02   28.18690567
  1 119 91      29.64832417   1.0000000000e-02   27.64832417
  1 119 92      29.00000000   1.0000000000e-02   27.00000000
  1 118 92      28.59856674   1.0000000000e-02   26.59856674
  1 118 93      28.17777640   1.0000000000e-02   26.17777640
  1 118 94      27.73090371   1.0000000000e-02   25.73090371
  1 117 94      27.38918992   1.0000000000e-02   25.38918992
  1 117 95      26.80051106   1.0000000000e-02   24.80051106
  1 117 96      26.19341765   1.0000000000e-02   24.19341765
  1 117 97      25.59718171   1.0000000000e-02   23.59718171
  1 117 98      25.00000000   1.0000000000e-02   23.00000000
  1 117 99      23.72565182   1.0000000000e-02   21.72565182
  1 117 100      22.42344407   1.0000000000e-02   20.42344407
  1 117 101      21.07585030   1.0000000000e-02   19.07585030
  1 117 102      19.97224495   1.0000000000e-02   17.97224495
  1 118 102      19.26171667   1.0000000000e-02   17.26171667
  1 118 103      18.18788668   1.0000000000e-02   16.18788668
  1 118 104      17.23167629   1.0000000000e-02   15.23167629
  1 119 104      16.56063337   1.0000000000e-02   14.56063337
  1 119 105      15.36460312   1.0000000000e-02   13.36460312
  1 119 106      14.00000000   1.0000000000e-02   12.00000000
  1 119 107      12.45680221   1.0000000000e-02   10.45680221
  1 118 107      10.91440327   1.0000000000e-02    8.91440327
  1 117 107      10.00000000   1.0000000000e-02    8.00000000
  1 117 108       9.44722412   1.0000000000e-02    7.44722412
  1 117 109       8.83250936   1.0000000000e-02    6.83250936
  1 116 109       8.29165935   1.0000000000e-02    6.29165935
  1 116 110       7.70793215   1.0000000000e-02    5.70793215
  1 115 110       7.26301304   1.0000000000e-02    5.26301304
  1 115 111       6.60000000   1.0000000000e-02    4.60000000
  1 115 112       5.95447695   1.0000000000e-02    3.95447695
  1 115 113       5.57692616   1.0000000000e-02    3.57692616
  1 116 113       5.19121904   1.0000000000e-02    3.19121904
  1 116 114       4.53554122   1.0000000000e-02    2.53554122
  1 116 115       3.88714160   1.0000000000e-02    1.88714160
  1 116 116       3.20000000   1.0000000000e-02    1.20000000
  1 116 117       2.99094973   1.0000000000e-02    0.99094973
  1 115 117       2.83857992   1.0000000000e-02    0.83857992
  1 115 118       2.63507094   1.0000000000e-02    0.63507094
  1 114 118       2.43564870   1.0000000000e-02    0.43564870
  1 114 119       2.26759802   1.0000000000e-02    0.26759802
  1 113 119       2.06152083   1.0000000000e-02    0.06152083
  1 113 120       1.89225500   1.0000000000e-02   -0.10774500
  1 112 120       1.69037108   1.0000000000e-02   -0.30962892
  1 112 121       1.51936898   1.0000000000e-02   -0.48063102
  1 111 121       1.33430857   1.0000000000e-02   -0.66569143
  1 110 121       1.14648297   1.0000000000e-02   -0.85351703
  1 110 122       0.97434581   1.0000000000e-02   -1.02565419
  1 109 122       0.77175890   1.0000000000e-02   -1.22824110
  1 109 123       0.60000000   1.0000000000e-02   -1.40000000
  1 108 123       0.60000000   1.0000000000e-02   -1.40000000
  1 108 124       0.60000000   1.0000000000e-02   -1.40000000
  1 109 124       0.60000000   1.0000000000e-02   -1.40000000
  1 109 125       0.60000000   1.0000000000e-02   -1.40000000
  1 110 125       0.60000000   1.0000000000e-02   -1.40000000
  1 111 125       0.60000000   1.0000000000e-02   -1.40000000
  1 112 125       0.60000000   1.0000000000e-02   -1.40000000
  1 113 125       0.60000000   1.0000000000e-02   -1.40000000
  1 114 125       0.60000000   1.0000000000e-02   -1.40000000
  1 115 125       0.60000000   1.0000000000e-02   -1.40000000
  1 115 126       0.60000000   1.0000000000e-02   -1.40000000
  1 115 127       0.60000000   1.0000000000e-02   -1.40000000
  1 115 128       0.60000000   1.0000000000e-02   -1.40000000
END period  1


