BEGIN options
  SAVE_FLOWS
END options

BEGIN dimensions
  MAXBOUND  18569
END dimensions

BEGIN period  1
  1 2 140  3.72557033E-09
  1 2 141  3.72557033E-09
  1 2 142  3.72557033E-09
  1 2 143  3.72557033E-09
  1 2 144  3.72557033E-09
  1 2 145  3.72557033E-09
  1 2 146  3.72557033E-09
  1 2 147  3.72557033E-09
  1 2 148  3.72557033E-09
  1 2 149  3.72557033E-09
  1 2 150  3.72557033E-09
  1 2 151  3.72557033E-09
  1 2 152  3.72557033E-09
  1 2 153  3.72557033E-09
  1 2 154  3.72557033E-09
  1 2 155  3.72557033E-09
  1 2 156  3.72557033E-09
  1 2 157  3.72557033E-09
  1 2 158  3.72557033E-09
  1 2 159  3.72557033E-09
  1 2 160  3.72557033E-09
  1 2 161  3.72557033E-09
  1 2 162  3.72557033E-09
  1 2 163  3.72557033E-09
  1 2 164  3.72557033E-09
  1 2 165  3.72557033E-09
  1 2 166  3.72557033E-09
  1 2 167  3.72557033E-09
  1 2 168  3.72557033E-09
  1 2 169  3.72557033E-09
  1 2 170  3.72557033E-09
  1 2 171  3.72557033E-09
  1 2 172  3.72557033E-09
  1 2 173  3.72557033E-09
  1 2 174  3.72557033E-09
  1 2 175  3.72557033E-09
  1 2 176  3.72557033E-09
  1 2 177  3.72557033E-09
  1 2 178  3.72557033E-09
  1 2 179  3.72557033E-09
  1 2 180  3.72557033E-09
  1 2 181  3.72557033E-09
  1 2 182  3.72557033E-09
  1 2 183  3.72557033E-09
  1 3 139  3.72557033E-09
  1 3 140  3.72557033E-09
  1 3 141  3.72557033E-09
  1 3 142  3.72557033E-09
  1 3 143  3.72557033E-09
  1 3 144  3.72557033E-09
  1 3 145  3.72557033E-09
  1 3 146  3.72557033E-09
  1 3 147  3.72557033E-09
  1 3 148  3.72557033E-09
  1 3 149  3.72557033E-09
  1 3 150  3.72557033E-09
  1 3 151  3.72557033E-09
  1 3 152  3.72557033E-09
  1 3 153  3.72557033E-09
  1 3 154  3.72557033E-09
  1 3 155  3.72557033E-09
  1 3 156  3.72557033E-09
  1 3 157  3.72557033E-09
  1 3 158  3.72557033E-09
  1 3 159  3.72557033E-09
  1 3 160  3.72557033E-09
  1 3 161  3.72557033E-09
  1 3 162  3.72557033E-09
  1 3 163  3.72557033E-09
  1 3 164  3.72557033E-09
  1 3 165  3.72557033E-09
  1 3 166  3.72557033E-09
  1 3 167  3.72557033E-09
  1 3 168  3.72557033E-09
  1 3 169  3.72557033E-09
  1 3 170  3.72557033E-09
  1 3 171  3.72557033E-09
  1 3 172  3.72557033E-09
  1 3 173  3.72557033E-09
  1 3 174  3.72557033E-09
  1 3 175  3.72557033E-09
  1 3 176  3.72557033E-09
  1 3 177  3.72557033E-09
  1 3 178  3.72557033E-09
  1 3 179  3.72557033E-09
  1 3 180  3.72557033E-09
  1 3 181  3.72557033E-09
  1 3 182  3.72557033E-09
  1 3 183  3.72557033E-09
  1 4 139  3.72557033E-09
  1 4 140  3.72557033E-09
  1 4 141  3.72557033E-09
  1 4 142  3.72557033E-09
  1 4 143  3.72557033E-09
  1 4 144  3.72557033E-09
  1 4 145  3.72557033E-09
  1 4 146  3.72557033E-09
  1 4 147  3.72557033E-09
  1 4 148  3.72557033E-09
  1 4 149  3.72557033E-09
  1 4 150  3.72557033E-09
  1 4 151  3.72557033E-09
  1 4 152  3.72557033E-09
  1 4 153  3.72557033E-09
  1 4 154  3.72557033E-09
  1 4 155  3.72557033E-09
  1 4 156  3.72557033E-09
  1 4 157  3.72557033E-09
  1 4 158  3.72557033E-09
  1 4 159  3.72557033E-09
  1 4 160  3.72557033E-09
  1 4 161  3.72557033E-09
  1 4 162  3.72557033E-09
  1 4 163  3.72557033E-09
  1 4 164  3.72557033E-09
  1 4 165  3.72557033E-09
  1 4 166  3.72557033E-09
  1 4 167  3.72557033E-09
  1 4 168  3.72557033E-09
  1 4 169  3.72557033E-09
  1 4 170  3.72557033E-09
  1 4 171  3.72557033E-09
  1 4 172  3.72557033E-09
  1 4 173  3.72557033E-09
  1 4 174  3.72557033E-09
  1 4 175  3.72557033E-09
  1 4 176  3.72557033E-09
  1 4 177  3.72557033E-09
  1 4 178  3.72557033E-09
  1 4 179  3.72557033E-09
  1 4 180  3.72557033E-09
  1 4 181  3.72557033E-09
  1 4 182  3.72557033E-09
  1 4 183  3.72557033E-09
  1 5 139  3.72557033E-09
  1 5 140  3.72557033E-09
  1 5 141  3.72557033E-09
  1 5 142  3.72557033E-09
  1 5 143  3.72557033E-09
  1 5 144  3.72557033E-09
  1 5 145  3.72557033E-09
  1 5 146  3.72557033E-09
  1 5 147  3.72557033E-09
  1 5 148  3.72557033E-09
  1 5 149  3.72557033E-09
  1 5 150  3.72557033E-09
  1 5 151  3.72557033E-09
  1 5 152  3.72557033E-09
  1 5 153  3.72557033E-09
  1 5 154  3.72557033E-09
  1 5 155  3.72557033E-09
  1 5 156  3.72557033E-09
  1 5 157  3.72557033E-09
  1 5 158  3.72557033E-09
  1 5 159  3.72557033E-09
  1 5 160  3.72557033E-09
  1 5 161  3.72557033E-09
  1 5 162  3.72557033E-09
  1 5 163  3.72557033E-09
  1 5 164  3.72557033E-09
  1 5 165  3.72557033E-09
  1 5 166  3.72557033E-09
  1 5 167  3.72557033E-09
  1 5 168  3.72557033E-09
  1 5 169  3.72557033E-09
  1 5 170  3.72557033E-09
  1 5 171  3.72557033E-09
  1 5 172  3.72557033E-09
  1 5 173  3.72557033E-09
  1 5 174  3.72557033E-09
  1 5 175  3.72557033E-09
  1 5 176  3.72557033E-09
  1 5 177  3.72557033E-09
  1 5 178  3.72557033E-09
  1 5 179  3.72557033E-09
  1 5 180  3.72557033E-09
  1 5 181  3.72557033E-09
  1 5 182  3.72557033E-09
  1 5 183  3.72557033E-09
  1 6 139  3.72557033E-09
  1 6 140  3.72557033E-09
  1 6 141  3.72557033E-09
  1 6 142  3.72557033E-09
  1 6 143  3.72557033E-09
  1 6 144  3.72557033E-09
  1 6 145  3.72557033E-09
  1 6 146  3.72557033E-09
  1 6 147  3.72557033E-09
  1 6 148  3.72557033E-09
  1 6 149  3.72557033E-09
  1 6 150  3.72557033E-09
  1 6 151  3.72557033E-09
  1 6 152  3.72557033E-09
  1 6 153  3.72557033E-09
  1 6 154  3.72557033E-09
  1 6 155  3.72557033E-09
  1 6 156  3.72557033E-09
  1 6 157  3.72557033E-09
  1 6 158  3.72557033E-09
  1 6 159  3.72557033E-09
  1 6 160  3.72557033E-09
  1 6 161  3.72557033E-09
  1 6 162  3.72557033E-09
  1 6 163  3.72557033E-09
  1 6 164  3.72557033E-09
  1 6 165  3.72557033E-09
  1 6 166  3.72557033E-09
  1 6 167  3.72557033E-09
  1 6 168  3.72557033E-09
  1 6 169  3.72557033E-09
  1 6 170  3.72557033E-09
  1 6 171  3.72557033E-09
  1 6 172  3.72557033E-09
  1 6 173  3.72557033E-09
  1 6 174  3.72557033E-09
  1 6 175  3.72557033E-09
  1 6 176  3.72557033E-09
  1 6 177  3.72557033E-09
  1 6 178  3.72557033E-09
  1 6 179  3.72557033E-09
  1 6 180  3.72557033E-09
  1 6 181  3.72557033E-09
  1 6 182  3.72557033E-09
  1 6 183  3.72557033E-09
  1 7 139  3.72557033E-09
  1 7 140  3.72557033E-09
  1 7 141  3.72557033E-09
  1 7 142  3.72557033E-09
  1 7 143  3.72557033E-09
  1 7 144  3.72557033E-09
  1 7 145  3.72557033E-09
  1 7 146  3.72557033E-09
  1 7 147  3.72557033E-09
  1 7 148  3.72557033E-09
  1 7 149  3.72557033E-09
  1 7 150  3.72557033E-09
  1 7 151  3.72557033E-09
  1 7 152  3.72557033E-09
  1 7 153  3.72557033E-09
  1 7 154  3.72557033E-09
  1 7 155  3.72557033E-09
  1 7 156  3.72557033E-09
  1 7 157  3.72557033E-09
  1 7 158  3.72557033E-09
  1 7 159  3.72557033E-09
  1 7 160  3.72557033E-09
  1 7 161  3.72557033E-09
  1 7 162  3.72557033E-09
  1 7 163  3.72557033E-09
  1 7 164  3.72557033E-09
  1 7 165  3.72557033E-09
  1 7 166  3.72557033E-09
  1 7 167  3.72557033E-09
  1 7 168  3.72557033E-09
  1 7 169  3.72557033E-09
  1 7 170  3.72557033E-09
  1 7 171  3.72557033E-09
  1 7 172  3.72557033E-09
  1 7 173  3.72557033E-09
  1 7 174  3.72557033E-09
  1 7 175  3.72557033E-09
  1 7 176  3.72557033E-09
  1 7 177  3.72557033E-09
  1 7 178  3.72557033E-09
  1 7 179  3.72557033E-09
  1 7 180  3.72557033E-09
  1 7 181  3.72557033E-09
  1 7 182  3.72557033E-09
  1 7 183  3.72557033E-09
  1 8 138  3.72557033E-09
  1 8 139  3.72557033E-09
  1 8 140  3.72557033E-09
  1 8 141  3.72557033E-09
  1 8 142  3.72557033E-09
  1 8 143  3.72557033E-09
  1 8 144  3.72557033E-09
  1 8 145  3.72557033E-09
  1 8 146  3.72557033E-09
  1 8 147  3.72557033E-09
  1 8 148  3.72557033E-09
  1 8 149  3.72557033E-09
  1 8 150  3.72557033E-09
  1 8 151  3.72557033E-09
  1 8 152  3.72557033E-09
  1 8 153  3.72557033E-09
  1 8 154  3.72557033E-09
  1 8 155  3.72557033E-09
  1 8 156  3.72557033E-09
  1 8 157  3.72557033E-09
  1 8 158  3.72557033E-09
  1 8 159  3.72557033E-09
  1 8 160  3.72557033E-09
  1 8 161  3.72557033E-09
  1 8 162  3.72557033E-09
  1 8 163  3.72557033E-09
  1 8 164  3.72557033E-09
  1 8 165  3.72557033E-09
  1 8 166  3.72557033E-09
  1 8 167  3.72557033E-09
  1 8 168  3.72557033E-09
  1 8 169  3.72557033E-09
  1 8 170  3.72557033E-09
  1 8 171  3.72557033E-09
  1 8 172  3.72557033E-09
  1 8 173  3.72557033E-09
  1 8 174  3.72557033E-09
  1 8 175  3.72557033E-09
  1 8 176  3.72557033E-09
  1 8 177  3.72557033E-09
  1 8 178  3.72557033E-09
  1 8 179  3.72557033E-09
  1 8 180  3.72557033E-09
  1 8 181  3.72557033E-09
  1 8 182  3.72557033E-09
  1 8 183  3.72557033E-09
  1 9 138  3.72557033E-09
  1 9 139  3.72557033E-09
  1 9 140  3.72557033E-09
  1 9 141  3.72557033E-09
  1 9 142  3.72557033E-09
  1 9 143  3.72557033E-09
  1 9 144  3.72557033E-09
  1 9 145  3.72557033E-09
  1 9 146  3.72557033E-09
  1 9 147  3.72557033E-09
  1 9 148  3.72557033E-09
  1 9 149  3.72557033E-09
  1 9 150  3.72557033E-09
  1 9 151  3.72557033E-09
  1 9 152  3.72557033E-09
  1 9 153  3.72557033E-09
  1 9 154  3.72557033E-09
  1 9 155  3.72557033E-09
  1 9 156  3.72557033E-09
  1 9 157  3.72557033E-09
  1 9 158  3.72557033E-09
  1 9 159  3.72557033E-09
  1 9 160  3.72557033E-09
  1 9 161  3.72557033E-09
  1 9 162  3.72557033E-09
  1 9 163  3.72557033E-09
  1 9 164  3.72557033E-09
  1 9 165  3.72557033E-09
  1 9 166  3.72557033E-09
  1 9 167  3.72557033E-09
  1 9 168  3.72557033E-09
  1 9 169  3.72557033E-09
  1 9 170  3.72557033E-09
  1 9 171  3.72557033E-09
  1 9 172  3.72557033E-09
  1 9 173  3.72557033E-09
  1 9 174  3.72557033E-09
  1 9 175  3.72557033E-09
  1 9 176  3.72557033E-09
  1 9 177  3.72557033E-09
  1 9 178  3.72557033E-09
  1 9 179  3.72557033E-09
  1 9 180  3.72557033E-09
  1 9 181  3.72557033E-09
  1 9 182  3.72557033E-09
  1 9 183  3.72557033E-09
  1 10 138  3.72557033E-09
  1 10 139  3.72557033E-09
  1 10 140  3.72557033E-09
  1 10 141  3.72557033E-09
  1 10 142  3.72557033E-09
  1 10 143  3.72557033E-09
  1 10 144  3.72557033E-09
  1 10 145  3.72557033E-09
  1 10 146  3.72557033E-09
  1 10 147  3.72557033E-09
  1 10 148  3.72557033E-09
  1 10 149  3.72557033E-09
  1 10 150  3.72557033E-09
  1 10 151  3.72557033E-09
  1 10 152  3.72557033E-09
  1 10 153  3.72557033E-09
  1 10 154  3.72557033E-09
  1 10 155  3.72557033E-09
  1 10 156  3.72557033E-09
  1 10 157  3.72557033E-09
  1 10 158  3.72557033E-09
  1 10 159  3.72557033E-09
  1 10 160  3.72557033E-09
  1 10 161  3.72557033E-09
  1 10 162  3.72557033E-09
  1 10 163  3.72557033E-09
  1 10 164  3.72557033E-09
  1 10 165  3.72557033E-09
  1 10 166  3.72557033E-09
  1 10 167  3.72557033E-09
  1 10 168  3.72557033E-09
  1 10 169  3.72557033E-09
  1 10 170  3.72557033E-09
  1 10 171  3.72557033E-09
  1 10 172  3.72557033E-09
  1 10 173  3.72557033E-09
  1 10 174  3.72557033E-09
  1 10 175  3.72557033E-09
  1 10 176  3.72557033E-09
  1 10 177  3.72557033E-09
  1 10 178  3.72557033E-09
  1 10 179  3.72557033E-09
  1 10 180  3.72557033E-09
  1 10 181  3.72557033E-09
  1 10 182  3.72557033E-09
  1 10 183  3.72557033E-09
  1 11 138  3.72557033E-09
  1 11 139  3.72557033E-09
  1 11 140  3.72557033E-09
  1 11 141  3.72557033E-09
  1 11 142  3.72557033E-09
  1 11 143  3.72557033E-09
  1 11 144  3.72557033E-09
  1 11 145  3.72557033E-09
  1 11 146  3.72557033E-09
  1 11 147  3.72557033E-09
  1 11 148  3.72557033E-09
  1 11 149  3.72557033E-09
  1 11 150  3.72557033E-09
  1 11 151  3.72557033E-09
  1 11 152  3.72557033E-09
  1 11 153  3.72557033E-09
  1 11 154  3.72557033E-09
  1 11 155  3.72557033E-09
  1 11 156  3.72557033E-09
  1 11 157  3.72557033E-09
  1 11 158  3.72557033E-09
  1 11 159  3.72557033E-09
  1 11 160  3.72557033E-09
  1 11 161  3.72557033E-09
  1 11 162  3.72557033E-09
  1 11 163  3.72557033E-09
  1 11 164  3.72557033E-09
  1 11 165  3.72557033E-09
  1 11 166  3.72557033E-09
  1 11 167  3.72557033E-09
  1 11 168  3.72557033E-09
  1 11 169  3.72557033E-09
  1 11 170  3.72557033E-09
  1 11 171  3.72557033E-09
  1 11 172  3.72557033E-09
  1 11 173  3.72557033E-09
  1 11 174  3.72557033E-09
  1 11 175  3.72557033E-09
  1 11 176  3.72557033E-09
  1 11 177  3.72557033E-09
  1 11 178  3.72557033E-09
  1 11 179  3.72557033E-09
  1 11 180  3.72557033E-09
  1 11 181  3.72557033E-09
  1 11 182  3.72557033E-09
  1 11 183  3.72557033E-09
  2 12 137  3.72557033E-09
  1 12 138  3.72557033E-09
  1 12 139  3.72557033E-09
  1 12 140  3.72557033E-09
  1 12 141  3.72557033E-09
  1 12 142  3.72557033E-09
  1 12 143  3.72557033E-09
  1 12 144  3.72557033E-09
  1 12 145  3.72557033E-09
  1 12 146  3.72557033E-09
  1 12 147  3.72557033E-09
  1 12 148  3.72557033E-09
  1 12 149  3.72557033E-09
  1 12 150  3.72557033E-09
  1 12 151  3.72557033E-09
  1 12 152  3.72557033E-09
  1 12 153  3.72557033E-09
  1 12 154  3.72557033E-09
  1 12 155  3.72557033E-09
  1 12 156  3.72557033E-09
  1 12 157  3.72557033E-09
  1 12 158  3.72557033E-09
  1 12 159  3.72557033E-09
  1 12 160  3.72557033E-09
  1 12 161  3.72557033E-09
  1 12 162  3.72557033E-09
  1 12 163  3.72557033E-09
  1 12 164  3.72557033E-09
  1 12 165  3.72557033E-09
  1 12 166  3.72557033E-09
  1 12 167  3.72557033E-09
  1 12 168  3.72557033E-09
  1 12 169  3.72557033E-09
  1 12 170  3.72557033E-09
  1 12 171  3.72557033E-09
  1 12 172  3.72557033E-09
  1 12 173  3.72557033E-09
  1 12 174  3.72557033E-09
  1 12 175  3.72557033E-09
  1 12 176  3.72557033E-09
  1 12 177  3.72557033E-09
  1 12 178  3.72557033E-09
  1 12 179  3.72557033E-09
  1 12 180  3.72557033E-09
  1 12 181  3.72557033E-09
  1 12 182  3.72557033E-09
  1 12 183  3.72557033E-09
  5 13 125  3.72557033E-09
  4 13 126  3.72557033E-09
  4 13 127  3.72557033E-09
  1 13 137  3.72557033E-09
  1 13 138  3.72557033E-09
  1 13 139  3.72557033E-09
  1 13 140  3.72557033E-09
  1 13 141  3.72557033E-09
  1 13 142  3.72557033E-09
  1 13 143  3.72557033E-09
  1 13 144  3.72557033E-09
  1 13 145  3.72557033E-09
  1 13 146  3.72557033E-09
  1 13 147  3.72557033E-09
  1 13 148  3.72557033E-09
  1 13 149  3.72557033E-09
  1 13 150  3.72557033E-09
  1 13 151  3.72557033E-09
  1 13 152  3.72557033E-09
  1 13 153  3.72557033E-09
  1 13 154  3.72557033E-09
  1 13 155  3.72557033E-09
  1 13 156  3.72557033E-09
  1 13 157  3.72557033E-09
  1 13 158  3.72557033E-09
  1 13 159  3.72557033E-09
  1 13 160  3.72557033E-09
  1 13 161  3.72557033E-09
  1 13 162  3.72557033E-09
  1 13 163  3.72557033E-09
  1 13 164  3.72557033E-09
  1 13 165  3.72557033E-09
  1 13 166  3.72557033E-09
  1 13 167  3.72557033E-09
  1 13 168  3.72557033E-09
  1 13 169  3.72557033E-09
  1 13 170  3.72557033E-09
  1 13 171  3.72557033E-09
  1 13 172  3.72557033E-09
  1 13 173  3.72557033E-09
  1 13 174  3.72557033E-09
  1 13 175  3.72557033E-09
  1 13 176  3.72557033E-09
  1 13 177  3.72557033E-09
  1 13 178  3.72557033E-09
  1 13 179  3.72557033E-09
  1 13 180  3.72557033E-09
  1 13 181  3.72557033E-09
  1 13 182  3.72557033E-09
  1 13 183  3.72557033E-09
  5 14 123  3.72557033E-09
  4 14 124  3.72557033E-09
  4 14 125  3.72557033E-09
  4 14 126  3.72557033E-09
  4 14 127  3.72557033E-09
  4 14 128  3.72557033E-09
  4 14 129  3.72557033E-09
  1 14 137  3.72557033E-09
  1 14 138  3.72557033E-09
  1 14 139  3.72557033E-09
  1 14 140  3.72557033E-09
  1 14 141  3.72557033E-09
  1 14 142  3.72557033E-09
  1 14 143  3.72557033E-09
  1 14 144  3.72557033E-09
  1 14 145  3.72557033E-09
  1 14 146  3.72557033E-09
  1 14 147  3.72557033E-09
  1 14 148  3.72557033E-09
  1 14 149  3.72557033E-09
  1 14 150  3.72557033E-09
  1 14 151  3.72557033E-09
  1 14 152  3.72557033E-09
  1 14 153  3.72557033E-09
  1 14 154  3.72557033E-09
  1 14 155  3.72557033E-09
  1 14 156  3.72557033E-09
  1 14 157  3.72557033E-09
  1 14 158  3.72557033E-09
  1 14 159  3.72557033E-09
  1 14 160  3.72557033E-09
  1 14 161  3.72557033E-09
  1 14 162  3.72557033E-09
  1 14 163  3.72557033E-09
  1 14 164  3.72557033E-09
  1 14 165  3.72557033E-09
  1 14 166  3.72557033E-09
  1 14 167  3.72557033E-09
  1 14 168  3.72557033E-09
  1 14 169  3.72557033E-09
  1 14 170  3.72557033E-09
  1 14 171  3.72557033E-09
  1 14 172  3.72557033E-09
  1 14 173  3.72557033E-09
  1 14 174  3.72557033E-09
  1 14 175  3.72557033E-09
  1 14 176  3.72557033E-09
  1 14 177  3.72557033E-09
  1 14 178  3.72557033E-09
  1 14 179  3.72557033E-09
  1 14 180  3.72557033E-09
  1 14 181  3.72557033E-09
  1 14 182  3.72557033E-09
  1 14 183  3.72557033E-09
  4 15 124  3.72557033E-09
  4 15 125  3.72557033E-09
  4 15 126  3.72557033E-09
  4 15 127  3.72557033E-09
  4 15 128  3.72557033E-09
  4 15 129  3.72557033E-09
  4 15 130  3.72557033E-09
  4 15 131  3.72557033E-09
  4 15 132  3.72557033E-09
  1 15 137  3.72557033E-09
  1 15 138  3.72557033E-09
  1 15 139  3.72557033E-09
  1 15 140  3.72557033E-09
  1 15 141  3.72557033E-09
  1 15 142  3.72557033E-09
  1 15 143  3.72557033E-09
  1 15 144  3.72557033E-09
  1 15 145  3.72557033E-09
  1 15 146  3.72557033E-09
  1 15 147  3.72557033E-09
  1 15 148  3.72557033E-09
  1 15 149  3.72557033E-09
  1 15 150  3.72557033E-09
  1 15 151  3.72557033E-09
  1 15 152  3.72557033E-09
  1 15 153  3.72557033E-09
  1 15 154  3.72557033E-09
  1 15 155  3.72557033E-09
  1 15 156  3.72557033E-09
  1 15 157  3.72557033E-09
  1 15 158  3.72557033E-09
  1 15 159  3.72557033E-09
  1 15 160  3.72557033E-09
  1 15 161  3.72557033E-09
  1 15 162  3.72557033E-09
  1 15 163  3.72557033E-09
  1 15 164  3.72557033E-09
  1 15 165  3.72557033E-09
  1 15 166  3.72557033E-09
  1 15 167  3.72557033E-09
  1 15 168  3.72557033E-09
  1 15 169  3.72557033E-09
  1 15 170  3.72557033E-09
  1 15 171  3.72557033E-09
  1 15 172  3.72557033E-09
  1 15 173  3.72557033E-09
  1 15 174  3.72557033E-09
  1 15 175  3.72557033E-09
  1 15 176  3.72557033E-09
  1 15 177  3.72557033E-09
  1 15 178  3.72557033E-09
  1 15 179  3.72557033E-09
  1 15 180  3.72557033E-09
  1 15 181  3.72557033E-09
  1 15 182  3.72557033E-09
  1 15 183  3.72557033E-09
  4 16 124  3.72557033E-09
  4 16 125  3.72557033E-09
  4 16 126  3.72557033E-09
  4 16 127  3.72557033E-09
  4 16 128  3.72557033E-09
  4 16 129  3.72557033E-09
  4 16 130  3.72557033E-09
  4 16 131  3.72557033E-09
  4 16 132  3.72557033E-09
  4 16 133  3.72557033E-09
  1 16 136  3.72557033E-09
  1 16 137  3.72557033E-09
  1 16 138  3.72557033E-09
  1 16 139  3.72557033E-09
  1 16 140  3.72557033E-09
  1 16 141  3.72557033E-09
  1 16 142  3.72557033E-09
  1 16 143  3.72557033E-09
  1 16 144  3.72557033E-09
  1 16 145  3.72557033E-09
  1 16 146  3.72557033E-09
  1 16 147  3.72557033E-09
  1 16 148  3.72557033E-09
  1 16 149  3.72557033E-09
  1 16 150  3.72557033E-09
  1 16 151  3.72557033E-09
  1 16 152  3.72557033E-09
  1 16 153  3.72557033E-09
  1 16 154  3.72557033E-09
  1 16 155  3.72557033E-09
  1 16 156  3.72557033E-09
  1 16 157  3.72557033E-09
  1 16 158  3.72557033E-09
  1 16 159  3.72557033E-09
  1 16 160  3.72557033E-09
  1 16 161  3.72557033E-09
  1 16 162  3.72557033E-09
  1 16 163  3.72557033E-09
  1 16 164  3.72557033E-09
  1 16 165  3.72557033E-09
  1 16 166  3.72557033E-09
  1 16 167  3.72557033E-09
  1 16 168  3.72557033E-09
  1 16 169  3.72557033E-09
  1 16 170  3.72557033E-09
  1 16 171  3.72557033E-09
  1 16 172  3.72557033E-09
  1 16 173  3.72557033E-09
  1 16 174  3.72557033E-09
  1 16 175  3.72557033E-09
  1 16 176  3.72557033E-09
  1 16 177  3.72557033E-09
  1 16 178  3.72557033E-09
  1 16 179  3.72557033E-09
  1 16 180  3.72557033E-09
  1 16 181  3.72557033E-09
  1 16 182  3.72557033E-09
  1 16 183  3.72557033E-09
  4 17 124  3.72557033E-09
  4 17 125  3.72557033E-09
  4 17 126  3.72557033E-09
  4 17 127  3.72557033E-09
  4 17 128  3.72557033E-09
  4 17 129  3.72557033E-09
  4 17 130  3.72557033E-09
  4 17 131  3.72557033E-09
  4 17 132  3.72557033E-09
  4 17 133  3.72557033E-09
  4 17 134  3.72557033E-09
  1 17 135  3.72557033E-09
  1 17 136  3.72557033E-09
  1 17 137  3.72557033E-09
  1 17 138  3.72557033E-09
  1 17 139  3.72557033E-09
  1 17 140  3.72557033E-09
  1 17 141  3.72557033E-09
  1 17 142  3.72557033E-09
  1 17 143  3.72557033E-09
  1 17 144  3.72557033E-09
  1 17 145  3.72557033E-09
  1 17 146  3.72557033E-09
  1 17 147  3.72557033E-09
  1 17 148  3.72557033E-09
  1 17 149  3.72557033E-09
  1 17 150  3.72557033E-09
  1 17 151  3.72557033E-09
  1 17 152  3.72557033E-09
  1 17 153  3.72557033E-09
  1 17 154  3.72557033E-09
  1 17 155  3.72557033E-09
  1 17 156  3.72557033E-09
  1 17 157  3.72557033E-09
  1 17 158  3.72557033E-09
  1 17 159  3.72557033E-09
  1 17 160  3.72557033E-09
  1 17 161  3.72557033E-09
  1 17 162  3.72557033E-09
  1 17 163  3.72557033E-09
  1 17 164  3.72557033E-09
  1 17 165  3.72557033E-09
  1 17 166  3.72557033E-09
  1 17 167  3.72557033E-09
  1 17 168  3.72557033E-09
  1 17 169  3.72557033E-09
  1 17 170  3.72557033E-09
  1 17 171  3.72557033E-09
  1 17 172  3.72557033E-09
  1 17 173  3.72557033E-09
  1 17 174  3.72557033E-09
  1 17 175  3.72557033E-09
  1 17 176  3.72557033E-09
  1 17 177  3.72557033E-09
  1 17 178  3.72557033E-09
  1 17 179  3.72557033E-09
  1 17 180  3.72557033E-09
  1 17 181  3.72557033E-09
  1 17 182  3.72557033E-09
  1 17 183  3.72557033E-09
  4 18 124  3.72557033E-09
  4 18 125  3.72557033E-09
  4 18 126  3.72557033E-09
  4 18 127  3.72557033E-09
  4 18 128  3.72557033E-09
  4 18 129  3.72557033E-09
  4 18 130  3.72557033E-09
  4 18 131  3.72557033E-09
  4 18 132  3.72557033E-09
  4 18 133  3.72557033E-09
  4 18 134  3.72557033E-09
  1 18 135  3.72557033E-09
  1 18 136  3.72557033E-09
  1 18 137  3.72557033E-09
  1 18 138  3.72557033E-09
  1 18 139  3.72557033E-09
  1 18 140  3.72557033E-09
  1 18 141  3.72557033E-09
  1 18 142  3.72557033E-09
  1 18 143  3.72557033E-09
  1 18 144  3.72557033E-09
  1 18 145  3.72557033E-09
  1 18 146  3.72557033E-09
  1 18 147  3.72557033E-09
  1 18 148  3.72557033E-09
  1 18 149  3.72557033E-09
  1 18 150  3.72557033E-09
  1 18 151  3.72557033E-09
  1 18 152  3.72557033E-09
  1 18 153  3.72557033E-09
  1 18 154  3.72557033E-09
  1 18 155  3.72557033E-09
  1 18 156  3.72557033E-09
  1 18 157  3.72557033E-09
  1 18 158  3.72557033E-09
  1 18 159  3.72557033E-09
  1 18 160  3.72557033E-09
  1 18 161  3.72557033E-09
  1 18 162  3.72557033E-09
  1 18 163  3.72557033E-09
  1 18 164  3.72557033E-09
  1 18 165  3.72557033E-09
  1 18 166  3.72557033E-09
  1 18 167  3.72557033E-09
  1 18 168  3.72557033E-09
  1 18 169  3.72557033E-09
  1 18 170  3.72557033E-09
  1 18 171  3.72557033E-09
  1 18 172  3.72557033E-09
  1 18 173  3.72557033E-09
  1 18 174  3.72557033E-09
  1 18 175  3.72557033E-09
  1 18 176  3.72557033E-09
  1 18 177  3.72557033E-09
  1 18 178  3.72557033E-09
  1 18 179  3.72557033E-09
  1 18 180  3.72557033E-09
  1 18 181  3.72557033E-09
  1 18 182  3.72557033E-09
  1 18 183  3.72557033E-09
  4 19 125  3.72557033E-09
  4 19 126  3.72557033E-09
  4 19 127  3.72557033E-09
  4 19 128  3.72557033E-09
  4 19 129  3.72557033E-09
  4 19 130  3.72557033E-09
  4 19 131  3.72557033E-09
  4 19 132  3.72557033E-09
  4 19 133  3.72557033E-09
  4 19 134  3.72557033E-09
  1 19 135  3.72557033E-09
  1 19 136  3.72557033E-09
  1 19 137  3.72557033E-09
  1 19 138  3.72557033E-09
  1 19 139  3.72557033E-09
  1 19 140  3.72557033E-09
  1 19 141  3.72557033E-09
  1 19 142  3.72557033E-09
  1 19 143  3.72557033E-09
  1 19 144  3.72557033E-09
  1 19 145  3.72557033E-09
  1 19 146  3.72557033E-09
  1 19 147  3.72557033E-09
  1 19 148  3.72557033E-09
  1 19 149  3.72557033E-09
  1 19 150  3.72557033E-09
  1 19 151  3.72557033E-09
  1 19 152  3.72557033E-09
  1 19 153  3.72557033E-09
  1 19 154  3.72557033E-09
  1 19 155  3.72557033E-09
  1 19 156  3.72557033E-09
  1 19 157  3.72557033E-09
  1 19 158  3.72557033E-09
  1 19 159  3.72557033E-09
  1 19 160  3.72557033E-09
  1 19 161  3.72557033E-09
  1 19 162  3.72557033E-09
  1 19 163  3.72557033E-09
  1 19 164  3.72557033E-09
  1 19 165  3.72557033E-09
  1 19 166  3.72557033E-09
  1 19 167  3.72557033E-09
  1 19 168  3.72557033E-09
  1 19 169  3.72557033E-09
  1 19 170  3.72557033E-09
  1 19 171  3.72557033E-09
  1 19 172  3.72557033E-09
  1 19 173  3.72557033E-09
  1 19 174  3.72557033E-09
  1 19 175  3.72557033E-09
  1 19 176  3.72557033E-09
  1 19 177  3.72557033E-09
  1 19 178  3.72557033E-09
  1 19 179  3.72557033E-09
  1 19 180  3.72557033E-09
  1 19 181  3.72557033E-09
  1 19 182  3.72557033E-09
  1 19 183  3.72557033E-09
  4 20 125  3.72557033E-09
  4 20 126  3.72557033E-09
  4 20 127  3.72557033E-09
  4 20 128  3.72557033E-09
  4 20 129  3.72557033E-09
  4 20 130  3.72557033E-09
  4 20 131  3.72557033E-09
  4 20 132  3.72557033E-09
  4 20 133  3.72557033E-09
  4 20 134  3.72557033E-09
  1 20 135  3.72557033E-09
  1 20 136  3.72557033E-09
  1 20 137  3.72557033E-09
  1 20 138  3.72557033E-09
  1 20 139  3.72557033E-09
  1 20 140  3.72557033E-09
  1 20 141  3.72557033E-09
  1 20 142  3.72557033E-09
  1 20 143  3.72557033E-09
  1 20 144  3.72557033E-09
  1 20 145  3.72557033E-09
  1 20 146  3.72557033E-09
  1 20 147  3.72557033E-09
  1 20 148  3.72557033E-09
  1 20 149  3.72557033E-09
  1 20 150  3.72557033E-09
  1 20 151  3.72557033E-09
  1 20 152  3.72557033E-09
  1 20 153  3.72557033E-09
  1 20 154  3.72557033E-09
  1 20 155  3.72557033E-09
  1 20 156  3.72557033E-09
  1 20 157  3.72557033E-09
  1 20 158  3.72557033E-09
  1 20 159  3.72557033E-09
  1 20 160  3.72557033E-09
  1 20 161  3.72557033E-09
  1 20 162  3.72557033E-09
  1 20 163  3.72557033E-09
  1 20 164  3.72557033E-09
  1 20 165  3.72557033E-09
  1 20 166  3.72557033E-09
  1 20 167  3.72557033E-09
  1 20 168  3.72557033E-09
  1 20 169  3.72557033E-09
  1 20 170  3.72557033E-09
  1 20 171  3.72557033E-09
  1 20 172  3.72557033E-09
  1 20 173  3.72557033E-09
  1 20 174  3.72557033E-09
  1 20 175  3.72557033E-09
  1 20 176  3.72557033E-09
  1 20 177  3.72557033E-09
  1 20 178  3.72557033E-09
  1 20 179  3.72557033E-09
  1 20 180  3.72557033E-09
  1 20 181  3.72557033E-09
  1 20 182  3.72557033E-09
  1 20 183  3.72557033E-09
  4 21 128  3.72557033E-09
  4 21 129  3.72557033E-09
  4 21 130  3.72557033E-09
  4 21 131  3.72557033E-09
  4 21 132  3.72557033E-09
  4 21 133  3.72557033E-09
  4 21 134  3.72557033E-09
  1 21 135  3.72557033E-09
  1 21 136  3.72557033E-09
  1 21 137  3.72557033E-09
  1 21 138  3.72557033E-09
  1 21 139  3.72557033E-09
  1 21 140  3.72557033E-09
  1 21 141  3.72557033E-09
  1 21 142  3.72557033E-09
  1 21 143  3.72557033E-09
  1 21 144  3.72557033E-09
  1 21 145  3.72557033E-09
  1 21 146  3.72557033E-09
  1 21 147  3.72557033E-09
  1 21 148  3.72557033E-09
  1 21 149  3.72557033E-09
  1 21 150  3.72557033E-09
  1 21 151  3.72557033E-09
  1 21 152  3.72557033E-09
  1 21 153  3.72557033E-09
  1 21 154  3.72557033E-09
  1 21 155  3.72557033E-09
  1 21 156  3.72557033E-09
  1 21 157  3.72557033E-09
  1 21 158  3.72557033E-09
  1 21 159  3.72557033E-09
  1 21 160  3.72557033E-09
  1 21 161  3.72557033E-09
  1 21 162  3.72557033E-09
  1 21 163  3.72557033E-09
  1 21 164  3.72557033E-09
  1 21 165  3.72557033E-09
  1 21 166  3.72557033E-09
  1 21 167  3.72557033E-09
  1 21 168  3.72557033E-09
  1 21 169  3.72557033E-09
  1 21 170  3.72557033E-09
  1 21 171  3.72557033E-09
  1 21 172  3.72557033E-09
  1 21 173  3.72557033E-09
  1 21 174  3.72557033E-09
  1 21 175  3.72557033E-09
  1 21 176  3.72557033E-09
  1 21 177  3.72557033E-09
  1 21 178  3.72557033E-09
  1 21 179  3.72557033E-09
  1 21 180  3.72557033E-09
  1 21 181  3.72557033E-09
  1 21 182  3.72557033E-09
  1 21 183  3.72557033E-09
  4 22 129  3.72557033E-09
  4 22 130  3.72557033E-09
  4 22 131  3.72557033E-09
  4 22 132  3.72557033E-09
  2 22 133  3.72557033E-09
  2 22 134  3.72557033E-09
  1 22 135  3.72557033E-09
  1 22 136  3.72557033E-09
  1 22 137  3.72557033E-09
  1 22 138  3.72557033E-09
  1 22 139  3.72557033E-09
  1 22 140  3.72557033E-09
  1 22 141  3.72557033E-09
  1 22 142  3.72557033E-09
  1 22 143  3.72557033E-09
  1 22 144  3.72557033E-09
  1 22 145  3.72557033E-09
  1 22 146  3.72557033E-09
  1 22 147  3.72557033E-09
  1 22 148  3.72557033E-09
  1 22 149  3.72557033E-09
  1 22 150  3.72557033E-09
  1 22 151  3.72557033E-09
  1 22 152  3.72557033E-09
  1 22 153  3.72557033E-09
  1 22 154  3.72557033E-09
  1 22 155  3.72557033E-09
  1 22 156  3.72557033E-09
  1 22 157  3.72557033E-09
  1 22 158  3.72557033E-09
  1 22 159  3.72557033E-09
  1 22 160  3.72557033E-09
  1 22 161  3.72557033E-09
  1 22 162  3.72557033E-09
  1 22 163  3.72557033E-09
  1 22 164  3.72557033E-09
  1 22 165  3.72557033E-09
  1 22 166  3.72557033E-09
  1 22 167  3.72557033E-09
  1 22 168  3.72557033E-09
  1 22 169  3.72557033E-09
  1 22 170  3.72557033E-09
  1 22 171  3.72557033E-09
  1 22 172  3.72557033E-09
  1 22 173  3.72557033E-09
  1 22 174  3.72557033E-09
  1 22 175  3.72557033E-09
  1 22 176  3.72557033E-09
  1 22 177  3.72557033E-09
  1 22 178  3.72557033E-09
  1 22 179  3.72557033E-09
  1 22 180  3.72557033E-09
  1 22 181  3.72557033E-09
  1 22 182  3.72557033E-09
  1 22 183  3.72557033E-09
  4 23 127  3.72557033E-09
  4 23 128  3.72557033E-09
  4 23 129  3.72557033E-09
  4 23 130  3.72557033E-09
  4 23 131  3.72557033E-09
  2 23 132  3.72557033E-09
  2 23 133  3.72557033E-09
  2 23 134  3.72557033E-09
  1 23 135  3.72557033E-09
  1 23 136  3.72557033E-09
  1 23 137  3.72557033E-09
  1 23 138  3.72557033E-09
  1 23 139  3.72557033E-09
  1 23 140  3.72557033E-09
  1 23 141  3.72557033E-09
  1 23 142  3.72557033E-09
  1 23 143  3.72557033E-09
  1 23 144  3.72557033E-09
  1 23 145  3.72557033E-09
  1 23 146  3.72557033E-09
  1 23 147  3.72557033E-09
  1 23 148  3.72557033E-09
  1 23 149  3.72557033E-09
  1 23 150  3.72557033E-09
  1 23 151  3.72557033E-09
  1 23 152  3.72557033E-09
  1 23 153  3.72557033E-09
  1 23 154  3.72557033E-09
  1 23 155  3.72557033E-09
  1 23 156  3.72557033E-09
  1 23 157  3.72557033E-09
  1 23 158  3.72557033E-09
  1 23 159  3.72557033E-09
  1 23 160  3.72557033E-09
  1 23 161  3.72557033E-09
  1 23 162  3.72557033E-09
  1 23 163  3.72557033E-09
  1 23 164  3.72557033E-09
  1 23 165  3.72557033E-09
  1 23 166  3.72557033E-09
  1 23 167  3.72557033E-09
  1 23 168  3.72557033E-09
  1 23 169  3.72557033E-09
  1 23 170  3.72557033E-09
  1 23 171  3.72557033E-09
  1 23 172  3.72557033E-09
  1 23 173  3.72557033E-09
  1 23 174  3.72557033E-09
  1 23 175  3.72557033E-09
  1 23 176  3.72557033E-09
  1 23 177  3.72557033E-09
  1 23 178  3.72557033E-09
  1 23 179  3.72557033E-09