BEGIN options
  DIGITS  10
  PRINT_INPUT
END options

BEGIN continuous  FILEOUT  heads.csv
  1_45_97  HEAD  2 46 98
  1_45_98  HEAD  2 46 99
  1_46_97  HEAD  2 47 98
  1_49_94  HEAD  2 50 95
  1_49_104  HEAD  2 50 105
  1_50_98  HEAD  2 51 99
  1_50_100  HEAD  2 51 101
  1_51_94  HEAD  2 52 95
  1_52_103  HEAD  2 53 104
  1_52_128  HEAD  2 53 129
  1_53_101  HEAD  2 54 102
  1_53_104  HEAD  2 54 105
  1_53_128  HEAD  2 54 129
  1_54_95  HEAD  2 55 96
  1_54_103  HEAD  2 55 104
  1_54_107  HEAD  2 55 108
  1_54_128  HEAD  2 55 129
  1_55_104  HEAD  2 56 105
  1_55_127  HEAD  2 56 128
  1_56_95  HEAD  2 57 96
  1_56_97  HEAD  2 57 98
  1_57_93  HEAD  2 58 94
  1_57_96  HEAD  2 58 97
  1_57_106  HEAD  2 58 107
  1_57_127  HEAD  2 58 128
  1_58_98  HEAD  2 59 99
  1_58_103  HEAD  2 59 104
  1_58_104  HEAD  2 59 105
  1_58_106  HEAD  2 59 107
  1_59_99  HEAD  2 60 100
  1_60_104  HEAD  2 61 105
  1_60_105  HEAD  2 61 106
  1_60_107  HEAD  2 61 108
  1_60_128  HEAD  2 61 129
  1_61_103  HEAD  2 62 104
  1_61_121  HEAD  2 62 122
  1_62_102  HEAD  2 63 103
  1_62_110  HEAD  2 63 111
  1_62_111  HEAD  2 63 112
  1_62_113  HEAD  2 63 114
  1_62_116  HEAD  2 63 117
  1_63_98  HEAD  2 64 99
  1_63_101  HEAD  2 64 102
  1_63_105  HEAD  2 64 106
  1_63_106  HEAD  2 64 107
  1_63_107  HEAD  2 64 108
  1_63_111  HEAD  2 64 112
  1_63_127  HEAD  2 64 128
  1_63_128  HEAD  2 64 129
  1_64_76  HEAD  2 65 77
  1_64_84  HEAD  2 65 85
  1_64_103  HEAD  2 65 104
  1_64_109  HEAD  2 65 110
  1_64_111  HEAD  2 65 112
  1_64_114  HEAD  2 65 115
  1_64_121  HEAD  2 65 122
  1_64_122  HEAD  2 65 123
  1_64_125  HEAD  2 65 126
  1_65_79  HEAD  2 66 80
  1_65_87  HEAD  2 66 88
  1_65_93  HEAD  2 66 94
  1_65_102  HEAD  2 66 103
  1_65_105  HEAD  2 66 106
  1_65_106  HEAD  2 66 107
  1_65_108  HEAD  2 66 109
  1_65_114  HEAD  2 66 115
  1_65_115  HEAD  2 66 116
  1_65_117  HEAD  2 66 118
  1_66_77  HEAD  2 67 78
  1_66_79  HEAD  2 67 80
  1_66_103  HEAD  2 67 104
  1_66_109  HEAD  2 67 110
  1_66_112  HEAD  2 67 113
  1_66_115  HEAD  2 67 116
  1_66_117  HEAD  2 67 118
  1_66_119  HEAD  2 67 120
  1_66_120  HEAD  2 67 121
  1_66_126  HEAD  2 67 127
  1_66_127  HEAD  2 67 128
  1_67_76  HEAD  2 68 77
  1_67_87  HEAD  2 68 88
  1_67_96  HEAD  2 68 97
  1_67_98  HEAD  2 68 99
  1_67_109  HEAD  2 68 110
  1_67_111  HEAD  2 68 112
  1_67_114  HEAD  2 68 115
  1_67_118  HEAD  2 68 119
  1_67_121  HEAD  2 68 122
  1_67_125  HEAD  2 68 126
  1_68_75  HEAD  2 69 76
  1_68_76  HEAD  2 69 77
  1_68_77  HEAD  2 69 78
  1_68_82  HEAD  2 69 83
  1_68_84  HEAD  2 69 85
  1_68_100  HEAD  2 69 101
  1_68_103  HEAD  2 69 104
  1_68_105  HEAD  2 69 106
  1_68_106  HEAD  2 69 107
  1_68_107  HEAD  2 69 108
  1_68_111  HEAD  2 69 112
  1_68_112  HEAD  2 69 113
  1_68_114  HEAD  2 69 115
  1_68_116  HEAD  2 69 117
  1_68_117  HEAD  2 69 118
  1_68_118  HEAD  2 69 119
  1_68_120  HEAD  2 69 121
  1_68_121  HEAD  2 69 122
  1_68_122  HEAD  2 69 123
  1_68_123  HEAD  2 69 124
  1_68_125  HEAD  2 69 126
  1_69_74  HEAD  2 70 75
  1_69_76  HEAD  2 70 77
  1_69_78  HEAD  2 70 79
  1_69_81  HEAD  2 70 82
  1_69_82  HEAD  2 70 83
  1_69_84  HEAD  2 70 85
  1_69_86  HEAD  2 70 87
  1_69_105  HEAD  2 70 106
  1_69_114  HEAD  2 70 115
  1_69_116  HEAD  2 70 117
  1_69_118  HEAD  2 70 119
  1_69_122  HEAD  2 70 123
  1_70_73  HEAD  2 71 74
  1_70_77  HEAD  2 71 78
  1_70_78  HEAD  2 71 79
  1_70_79  HEAD  2 71 80
  1_70_81  HEAD  2 71 82
  1_70_85  HEAD  2 71 86
  1_70_86  HEAD  2 71 87
  1_70_91  HEAD  2 71 92
  1_70_94  HEAD  2 71 95
  1_70_97  HEAD  2 71 98
  1_70_102  HEAD  2 71 103
  1_70_106  HEAD  2 71 107
  1_70_110  HEAD  2 71 111
  1_70_111  HEAD  2 71 112
  1_70_116  HEAD  2 71 117
  1_70_120  HEAD  2 71 121
  1_70_121  HEAD  2 71 122
  1_70_124  HEAD  2 71 125
  1_70_125  HEAD  2 71 126
  1_70_127  HEAD  2 71 128
  1_71_74  HEAD  2 72 75
  1_71_83  HEAD  2 72 84
  1_71_86  HEAD  2 72 87
  1_71_91  HEAD  2 72 92
  1_71_100  HEAD  2 72 101
  1_71_103  HEAD  2 72 104
  1_71_112  HEAD  2 72 113
  1_71_116  HEAD  2 72 117
  1_71_117  HEAD  2 72 118
  1_71_119  HEAD  2 72 120
  1_71_123  HEAD  2 72 124
  1_71_125  HEAD  2 72 126
  1_72_77  HEAD  2 73 78
  1_72_79  HEAD  2 73 80
  1_72_81  HEAD  2 73 82
  1_72_86  HEAD  2 73 87
  1_72_87  HEAD  2 73 88
  1_72_91  HEAD  2 73 92
  1_72_92  HEAD  2 73 93
  1_72_111  HEAD  2 73 112
  1_72_114  HEAD  2 73 115
  1_72_117  HEAD  2 73 118
  1_72_119  HEAD  2 73 120
  1_72_120  HEAD  2 73 121
  1_72_121  HEAD  2 73 122
  1_72_123  HEAD  2 73 124
  1_72_124  HEAD  2 73 125
  1_73_85  HEAD  2 74 86
  1_73_87  HEAD  2 74 88
  1_73_98  HEAD  2 74 99
  1_73_103  HEAD  2 74 104
  1_73_105  HEAD  2 74 106
  1_73_107  HEAD  2 74 108
  1_73_108  HEAD  2 74 109
  1_73_110  HEAD  2 74 111
  1_73_112  HEAD  2 74 113
  1_73_115  HEAD  2 74 116
  1_73_116  HEAD  2 74 117
  1_74_77  HEAD  2 75 78
  1_74_80  HEAD  2 75 81
  1_74_84  HEAD  2 75 85
  1_74_86  HEAD  2 75 87
  1_74_88  HEAD  2 75 89
  1_74_96  HEAD  2 75 97
  1_74_100  HEAD  2 75 101
  1_74_102  HEAD  2 75 103
  1_74_103  HEAD  2 75 104
  1_74_104  HEAD  2 75 105
  1_74_111  HEAD  2 75 112
  1_74_114  HEAD  2 75 115
  1_74_117  HEAD  2 75 118
  1_74_118  HEAD  2 75 119
  1_74_119  HEAD  2 75 120
  1_74_124  HEAD  2 75 125
  1_74_125  HEAD  2 75 126
  1_74_126  HEAD  2 75 127
  1_75_80  HEAD  2 76 81
  1_75_81  HEAD  2 76 82
  1_75_85  HEAD  2 76 86
  1_75_86  HEAD  2 76 87
  1_75_87  HEAD  2 76 88
  1_75_89  HEAD  2 76 90
  1_75_90  HEAD  2 76 91
  1_75_93  HEAD  2 76 94
  1_75_94  HEAD  2 76 95
  1_75_95  HEAD  2 76 96
  1_75_96  HEAD  2 76 97
  1_75_99  HEAD  2 76 100
  1_75_100  HEAD  2 76 101
  1_75_108  HEAD  2 76 109
  1_75_110  HEAD  2 76 111
  1_75_112  HEAD  2 76 113
  1_75_113  HEAD  2 76 114
  1_75_116  HEAD  2 76 117
  1_75_118  HEAD  2 76 119
  1_75_121  HEAD  2 76 122
  1_75_126  HEAD  2 76 127
  1_76_82  HEAD  2 77 83
  1_76_83  HEAD  2 77 84
  1_76_86  HEAD  2 77 87
  1_76_88  HEAD  2 77 89
  1_76_89  HEAD  2 77 90
  1_76_90  HEAD  2 77 91
  1_76_91  HEAD  2 77 92
  1_76_97  HEAD  2 77 98
  1_76_99  HEAD  2 77 100
  1_76_103  HEAD  2 77 104
  1_76_104  HEAD  2 77 105
  1_76_106  HEAD  2 77 107
  1_76_108  HEAD  2 77 109
  1_76_110  HEAD  2 77 111
  1_76_114  HEAD  2 77 115
  1_76_117  HEAD  2 77 118
  1_77_89  HEAD  2 78 90
  1_77_90  HEAD  2 78 91
  1_77_94  HEAD  2 78 95
  1_77_108  HEAD  2 78 109
  1_77_113  HEAD  2 78 114
  1_77_115  HEAD  2 78 116
  1_77_118  HEAD  2 78 119
  1_77_119  HEAD  2 78 120
  1_77_121  HEAD  2 78 122
  1_78_90  HEAD  2 79 91
  1_78_93  HEAD  2 79 94
  1_78_95  HEAD  2 79 96
  1_78_107  HEAD  2 79 108
  1_78_111  HEAD  2 79 112
  1_78_119  HEAD  2 79 120
  1_79_92  HEAD  2 80 93
  1_79_97  HEAD  2 80 98
  1_79_98  HEAD  2 80 99
  1_79_104  HEAD  2 80 105
  1_79_106  HEAD  2 80 107
  1_79_115  HEAD  2 80 116
  1_79_121  HEAD  2 80 122
  1_80_101  HEAD  2 81 102
  1_80_111  HEAD  2 81 112
  1_80_113  HEAD  2 81 114
  1_80_117  HEAD  2 81 118
  1_80_120  HEAD  2 81 121
  1_80_123  HEAD  2 81 124
  1_81_105  HEAD  2 82 106
  1_81_109  HEAD  2 82 110
  1_81_116  HEAD  2 82 117
  1_81_118  HEAD  2 82 119
  1_81_123  HEAD  2 82 124
  1_82_91  HEAD  2 83 92
  1_82_94  HEAD  2 83 95
  1_82_102  HEAD  2 83 103
  1_82_105  HEAD  2 83 106
  1_82_106  HEAD  2 83 107
  1_82_113  HEAD  2 83 114
  1_82_121  HEAD  2 83 122
  1_83_89  HEAD  2 84 90
  1_83_91  HEAD  2 84 92
  1_83_92  HEAD  2 84 93
  1_83_95  HEAD  2 84 96
  1_83_100  HEAD  2 84 101
  1_83_103  HEAD  2 84 104
  1_83_108  HEAD  2 84 109
  1_83_115  HEAD  2 84 116
  1_83_117  HEAD  2 84 118
  1_83_125  HEAD  2 84 126
  1_84_94  HEAD  2 85 95
  1_84_99  HEAD  2 85 100
  1_84_102  HEAD  2 85 103
  1_84_108  HEAD  2 85 109
  1_84_109  HEAD  2 85 110
  1_84_111  HEAD  2 85 112
  1_84_119  HEAD  2 85 120
  1_85_88  HEAD  2 86 89
  1_85_95  HEAD  2 86 96
  1_85_100  HEAD  2 86 101
  1_85_101  HEAD  2 86 102
  1_85_107  HEAD  2 86 108
  1_85_111  HEAD  2 86 112
  1_85_113  HEAD  2 86 114
  1_85_115  HEAD  2 86 116
  1_85_116  HEAD  2 86 117
  1_85_118  HEAD  2 86 119
  1_85_120  HEAD  2 86 121
  1_85_121  HEAD  2 86 122
  1_85_125  HEAD  2 86 126
  1_85_127  HEAD  2 86 128
  1_86_92  HEAD  2 87 93
  1_86_96  HEAD  2 87 97
  1_86_101  HEAD  2 87 102
  1_86_105  HEAD  2 87 106
  1_86_109  HEAD  2 87 110
  1_86_123  HEAD  2 87 124
  1_86_124  HEAD  2 87 125
  1_87_94  HEAD  2 88 95
  1_87_98  HEAD  2 88 99
  1_87_110  HEAD  2 88 111
  1_87_113  HEAD  2 88 114
  1_87_115  HEAD  2 88 116
  1_87_119  HEAD  2 88 120
  1_87_120  HEAD  2 88 121
  1_87_127  HEAD  2 88 128
  1_88_107  HEAD  2 89 108
  1_88_109  HEAD  2 89 110
  1_88_120  HEAD  2 89 121
  1_88_123  HEAD  2 89 124
  1_88_124  HEAD  2 89 125
  1_89_110  HEAD  2 90 111
  1_89_111  HEAD  2 90 112
  1_89_115  HEAD  2 90 116
  1_89_118  HEAD  2 90 119
  1_89_121  HEAD  2 90 122
  1_89_123  HEAD  2 90 124
  1_90_90  HEAD  2 91 91
  1_90_94  HEAD  2 91 95
  1_90_99  HEAD  2 91 100
  1_90_104  HEAD  2 91 105
  1_90_105  HEAD  2 91 106
  1_90_107  HEAD  2 91 108
  1_90_109  HEAD  2 91 110
  1_90_117  HEAD  2 91 118
  1_90_121  HEAD  2 91 122
  1_90_124  HEAD  2 91 125
  1_90_125  HEAD  2 91 126
  1_90_126  HEAD  2 91 127
  1_91_100  HEAD  2 92 101
  1_91_112  HEAD  2 92 113
  1_91_114  HEAD  2 92 115
  1_91_116  HEAD  2 92 117
  1_91_118  HEAD  2 92 119
  1_91_122  HEAD  2 92 123
  1_92_109  HEAD  2 93 110
  1_92_110  HEAD  2 93 111
  1_92_114  HEAD  2 93 115
  1_92_126  HEAD  2 93 127
  1_93_99  HEAD  2 94 100
  1_93_103  HEAD  2 94 104
  1_93_113  HEAD  2 94 114
  1_93_117  HEAD  2 94 118
  1_93_119  HEAD  2 94 120
  1_93_122  HEAD  2 94 123
  1_94_112  HEAD  2 95 113
  1_94_125  HEAD  2 95 126
  1_95_74  HEAD  2 96 75
  1_95_80  HEAD  2 96 81
  1_95_118  HEAD  2 96 119
  1_95_125  HEAD  2 96 126
  1_95_127  HEAD  2 96 128
  1_96_65  HEAD  2 97 66
  1_96_66  HEAD  2 97 67
  1_96_76  HEAD  2 97 77
  1_97_67  HEAD  2 98 68
  1_98_67  HEAD  2 99 68
  1_98_95  HEAD  2 99 96
  1_99_89  HEAD  2 100 90
  1_100_53  HEAD  2 101 54
  1_100_76  HEAD  2 101 77
  1_101_56  HEAD  2 102 57
  1_101_76  HEAD  2 102 77
  1_102_73  HEAD  2 103 74
  1_102_75  HEAD  2 103 76
  1_102_78  HEAD  2 103 79
  1_102_79  HEAD  2 103 80
  1_103_71  HEAD  2 104 72
  1_103_77  HEAD  2 104 78
  1_103_83  HEAD  2 104 84
  1_103_85  HEAD  2 104 86
  1_104_48  HEAD  2 105 49
  1_104_68  HEAD  2 105 69
  1_104_81  HEAD  2 105 82
  1_104_84  HEAD  2 105 85
  1_105_52  HEAD  2 106 53
  1_105_58  HEAD  2 106 59
  1_105_72  HEAD  2 106 73
  1_105_76  HEAD  2 106 77
  1_105_79  HEAD  2 106 80
  1_106_45  HEAD  2 107 46
  1_106_52  HEAD  2 107 53
  1_106_57  HEAD  2 107 58
  1_106_59  HEAD  2 107 60
  1_106_60  HEAD  2 107 61
  1_106_69  HEAD  2 107 70
  1_106_71  HEAD  2 107 72
  1_107_47  HEAD  2 108 48
  1_107_54  HEAD  2 108 55
  1_107_57  HEAD  2 108 58
  1_107_74  HEAD  2 108 75
  1_107_79  HEAD  2 108 80
  1_108_42  HEAD  2 109 43
  1_108_72  HEAD  2 109 73
  1_109_46  HEAD  2 110 47
  1_109_49  HEAD  2 110 50
  1_109_54  HEAD  2 110 55
  1_109_56  HEAD  2 110 57
  1_109_58  HEAD  2 110 59
  1_109_63  HEAD  2 110 64
  1_109_75  HEAD  2 110 76
  1_109_78  HEAD  2 110 79
  1_109_114  HEAD  2 110 115
  1_110_99  HEAD  2 111 100
  1_110_105  HEAD  2 111 106
  1_110_106  HEAD  2 111 107
  1_111_56  HEAD  2 112 57
  1_111_66  HEAD  2 112 67
  1_111_72  HEAD  2 112 73
  1_111_118  HEAD  2 112 119
  1_112_46  HEAD  2 113 47
  1_112_52  HEAD  2 113 53
  1_112_66  HEAD  2 113 67
  1_112_98  HEAD  2 113 99
  1_112_102  HEAD  2 113 103
  1_112_109  HEAD  2 113 110
  1_113_61  HEAD  2 114 62
  1_113_71  HEAD  2 114 72
  1_113_111  HEAD  2 114 112
  1_114_62  HEAD  2 115 63
  1_114_67  HEAD  2 115 68
  1_114_71  HEAD  2 115 72
  1_114_72  HEAD  2 115 73
  1_115_48  HEAD  2 116 49
  1_115_52  HEAD  2 116 53
  1_115_58  HEAD  2 116 59
  1_115_64  HEAD  2 116 65
  1_115_67  HEAD  2 116 68
  1_115_95  HEAD  2 116 96
  1_115_106  HEAD  2 116 107
  1_115_112  HEAD  2 116 113
  1_115_115  HEAD  2 116 116
  1_116_60  HEAD  2 117 61
  1_116_62  HEAD  2 117 63
  1_116_64  HEAD  2 117 65
  1_116_70  HEAD  2 117 71
  1_116_98  HEAD  2 117 99
  1_116_102  HEAD  2 117 103
  1_116_104  HEAD  2 117 105
  1_117_56  HEAD  2 118 57
  1_117_62  HEAD  2 118 63
  1_117_101  HEAD  2 118 102
  1_117_109  HEAD  2 118 110
  1_118_86  HEAD  2 119 87
  1_118_91  HEAD  2 119 92
  1_118_105  HEAD  2 119 106
  1_119_47  HEAD  2 120 48
  1_119_55  HEAD  2 120 56
  1_119_58  HEAD  2 120 59
  1_119_88  HEAD  2 120 89
  1_119_109  HEAD  2 120 110
  1_119_127  HEAD  2 120 128
  1_120_50  HEAD  2 121 51
  1_120_103  HEAD  2 121 104
  1_120_112  HEAD  2 121 113
  1_120_120  HEAD  2 121 121
  1_121_58  HEAD  2 122 59
  1_121_101  HEAD  2 122 102
  1_121_104  HEAD  2 122 105
  1_121_107  HEAD  2 122 108
  1_121_117  HEAD  2 122 118
  1_121_127  HEAD  2 122 128
  1_122_53  HEAD  2 123 54
  1_122_62  HEAD  2 123 63
  1_122_63  HEAD  2 123 64
  1_122_84  HEAD  2 123 85
  1_122_121  HEAD  2 123 122
  1_123_59  HEAD  2 124 60
  1_123_103  HEAD  2 124 104
  1_123_105  HEAD  2 124 106
  1_123_108  HEAD  2 124 109
  1_123_112  HEAD  2 124 113
  1_123_127  HEAD  2 124 128
  1_124_60  HEAD  2 125 61
  1_124_61  HEAD  2 125 62
  1_124_62  HEAD  2 125 63
  1_124_100  HEAD  2 125 101
  1_124_116  HEAD  2 125 117
  1_125_57  HEAD  2 126 58
  1_125_60  HEAD  2 126 61
  1_125_103  HEAD  2 126 104
  1_126_106  HEAD  2 127 107
  1_127_56  HEAD  2 128 57
  1_128_105  HEAD  2 129 106
  1_128_120  HEAD  2 129 121
  1_129_110  HEAD  2 130 111
  1_129_113  HEAD  2 130 114
  1_129_127  HEAD  2 130 128
  1_130_106  HEAD  2 131 107
  1_131_65  HEAD  2 132 66
  1_132_105  HEAD  2 133 106
  1_133_79  HEAD  2 134 80
  1_134_55  HEAD  2 135 56
  1_134_57  HEAD  2 135 58
  1_134_106  HEAD  2 135 107
  1_134_118  HEAD  2 135 119
  1_134_121  HEAD  2 135 122
  1_135_113  HEAD  2 136 114
  1_135_115  HEAD  2 136 116
  1_136_114  HEAD  2 137 115
  1_137_109  HEAD  2 138 110
  1_137_124  HEAD  2 138 125
  1_137_126  HEAD  2 138 127
  1_138_117  HEAD  2 139 118
  1_138_118  HEAD  2 139 119
  1_141_114  HEAD  2 142 115
  1_142_110  HEAD  2 143 111
  1_142_116  HEAD  2 143 117
  1_143_108  HEAD  2 144 109
  1_143_111  HEAD  2 144 112
  1_143_121  HEAD  2 144 122
  1_143_127  HEAD  2 144 128
  1_144_105  HEAD  2 145 106
  1_144_107  HEAD  2 145 108
  1_144_109  HEAD  2 145 110
  1_144_116  HEAD  2 145 117
  1_144_127  HEAD  2 145 128
  1_145_106  HEAD  2 146 107
  1_145_107  HEAD  2 146 108
  1_145_117  HEAD  2 146 118
  1_146_102  HEAD  2 147 103
  1_146_103  HEAD  2 147 104
  1_146_105  HEAD  2 147 106
  1_146_111  HEAD  2 147 112
  1_147_91  HEAD  2 148 92
  1_147_109  HEAD  2 148 110
  1_147_111  HEAD  2 148 112
  1_147_113  HEAD  2 148 114
  1_147_115  HEAD  2 148 116
  1_147_119  HEAD  2 148 120
  1_148_98  HEAD  2 149 99
  1_148_115  HEAD  2 149 116
  1_148_119  HEAD  2 149 120
  1_149_91  HEAD  2 150 92
  1_149_100  HEAD  2 150 101
  1_149_104  HEAD  2 150 105
  1_149_108  HEAD  2 150 109
  1_150_87  HEAD  2 151 88
  1_150_98  HEAD  2 151 99
  1_150_110  HEAD  2 151 111
  1_150_129  HEAD  2 151 130
  1_151_95  HEAD  2 152 96
  1_151_104  HEAD  2 152 105
  1_151_105  HEAD  2 152 106
  1_151_111  HEAD  2 152 112
  1_151_122  HEAD  2 152 123
  1_152_94  HEAD  2 153 95
  1_152_95  HEAD  2 153 96
  1_152_110  HEAD  2 153 111
  1_152_125  HEAD  2 153 126
  1_153_111  HEAD  2 154 112
  1_154_79  HEAD  2 155 80
  1_154_108  HEAD  2 155 109
  1_154_110  HEAD  2 155 111
  1_154_120  HEAD  2 155 121
  1_154_124  HEAD  2 155 125
  1_154_129  HEAD  2 155 130
  1_155_110  HEAD  2 156 111
  1_156_78  HEAD  2 157 79
  1_156_87  HEAD  2 157 88
  1_156_94  HEAD  2 157 95
  1_156_96  HEAD  2 157 97
  1_156_121  HEAD  2 157 122
  1_156_123  HEAD  2 157 124
  1_156_125  HEAD  2 157 126
  1_156_129  HEAD  2 157 130
  1_157_75  HEAD  2 158 76
  1_157_76  HEAD  2 158 77
  1_157_79  HEAD  2 158 80
  1_157_122  HEAD  2 158 123
  1_157_124  HEAD  2 158 125
  1_158_75  HEAD  2 159 76
  1_158_82  HEAD  2 159 83
  1_158_83  HEAD  2 159 84
  1_158_101  HEAD  2 159 102
  1_158_124  HEAD  2 159 125
  1_158_131  HEAD  2 159 132
  1_159_90  HEAD  2 160 91
  1_160_73  HEAD  2 161 74
  1_160_82  HEAD  2 161 83
  1_160_97  HEAD  2 161 98
  1_160_100  HEAD  2 161 101
  1_160_112  HEAD  2 161 113
  1_161_100  HEAD  2 162 101
  1_161_104  HEAD  2 162 105
  1_161_106  HEAD  2 162 107
  1_162_71  HEAD  2 163 72
  1_162_90  HEAD  2 163 91
  1_162_100  HEAD  2 163 101
  1_162_106  HEAD  2 163 107
  1_163_71  HEAD  2 164 72
  1_163_96  HEAD  2 164 97
  1_163_105  HEAD  2 164 106
  1_164_66  HEAD  2 165 67
  1_164_68  HEAD  2 165 69
  1_164_102  HEAD  2 165 103
  1_164_103  HEAD  2 165 104
  1_165_63  HEAD  2 166 64
  1_165_100  HEAD  2 166 101
  1_166_64  HEAD  2 167 65
  1_167_58  HEAD  2 168 59
  1_167_59  HEAD  2 168 60
  1_167_60  HEAD  2 168 61
  1_169_54  HEAD  2 170 55
  1_169_56  HEAD  2 170 57
  1_170_53  HEAD  2 171 54
  1_171_49  HEAD  2 172 50
  1_171_53  HEAD  2 172 54
  1_171_54  HEAD  2 172 55
  1_171_66  HEAD  2 172 67
  1_172_50  HEAD  2 173 51
  1_172_51  HEAD  2 173 52
  1_172_53  HEAD  2 173 54
  1_172_65  HEAD  2 173 66
  1_173_48  HEAD  2 174 49
  1_173_49  HEAD  2 174 50
  1_173_64  HEAD  2 174 65
  1_173_65  HEAD  2 174 66
  1_174_53  HEAD  2 175 54
  1_174_57  HEAD  2 175 58
  1_175_56  HEAD  2 176 57
  1_176_53  HEAD  2 177 54
  1_177_53  HEAD  2 178 54
  1_177_55  HEAD  2 178 56
  1_178_53  HEAD  2 179 54
  1_178_64  HEAD  2 179 65
  3_53_101  HEAD  4 54 102
  3_55_97  HEAD  4 56 98
  3_60_99  HEAD  4 61 100
  3_61_98  HEAD  4 62 99
  3_61_101  HEAD  4 62 102
  3_63_101  HEAD  4 64 102
  3_66_92  HEAD  4 67 93
  3_67_76  HEAD  4 68 77
  3_67_91  HEAD  4 68 92
  3_69_77  HEAD  4 70 78
  3_69_80  HEAD  4 70 81
  3_69_83  HEAD  4 70 84
  3_70_86  HEAD  4 71 87
  3_70_103  HEAD  4 71 104
  3_71_84  HEAD  4 72 85
  3_72_71  HEAD  4 73 72
  3_76_78  HEAD  4 77 79
  3_78_80  HEAD  4 79 81
  3_79_81  HEAD  4 80 82
  3_81_96  HEAD  4 82 97
  3_85_85  HEAD  4 86 86
  3_88_84  HEAD  4 89 85
  3_89_79  HEAD  4 90 80
  3_94_108  HEAD  4 95 109
  3_95_113  HEAD  4 96 114
  3_96_82  HEAD  4 97 83
  3_96_121  HEAD  4 97 122
  3_98_107  HEAD  4 99 108
  3_99_98  HEAD  4 100 99
  3_99_99  HEAD  4 100 100
  3_99_102  HEAD  4 100 103
  3_99_104  HEAD  4 100 105
  3_99_106  HEAD  4 100 107
  3_100_55  HEAD  4 101 56
  3_100_89  HEAD  4 101 90
  3_100_110  HEAD  4 101 111
  3_100_112  HEAD  4 101 113
  3_101_108  HEAD  4 102 109
  3_102_49  HEAD  4 103 50
  3_103_77  HEAD  4 104 78
  3_103_88  HEAD  4 104 89
  3_103_92  HEAD  4 104 93
  3_103_94  HEAD  4 104 95
  3_103_124  HEAD  4 104 125
  3_104_91  HEAD  4 105 92
  3_104_101  HEAD  4 105 102
  3_104_112  HEAD  4 105 113
  3_105_104  HEAD  4 106 105
  3_106_82  HEAD  4 107 83
  3_106_88  HEAD  4 107 89
  3_106_89  HEAD  4 107 90
  3_106_90  HEAD  4 107 91
  3_106_100  HEAD  4 107 101
  3_106_101  HEAD  4 107 102
  3_107_88  HEAD  4 108 89
  3_107_97  HEAD  4 108 98
  3_107_109  HEAD  4 108 110
  3_107_110  HEAD  4 108 111
  3_109_95  HEAD  4 110 96
  3_111_115  HEAD  4 112 116
  3_112_52  HEAD  4 113 53
  3_112_81  HEAD  4 113 82
  3_113_93  HEAD  4 114 94
  3_113_94  HEAD  4 114 95
  3_114_92  HEAD  4 115 93
  3_115_72  HEAD  4 116 73
  3_115_76  HEAD  4 116 77
  3_117_79  HEAD  4 118 80
  3_118_68  HEAD  4 119 69
  3_119_70  HEAD  4 120 71
  3_119_81  HEAD  4 120 82
  3_120_65  HEAD  4 121 66
  3_120_66  HEAD  4 121 67
  3_120_70  HEAD  4 121 71
  3_120_78  HEAD  4 121 79
  3_120_120  HEAD  4 121 121
  3_121_68  HEAD  4 122 69
  3_121_76  HEAD  4 122 77
  3_122_89  HEAD  4 123 90
  3_123_77  HEAD  4 124 78
  3_123_79  HEAD  4 124 80
  3_124_66  HEAD  4 125 67
  3_125_60  HEAD  4 126 61
  3_125_82  HEAD  4 126 83
  3_126_59  HEAD  4 127 60
  3_126_65  HEAD  4 127 66
  3_126_71  HEAD  4 127 72
  3_126_96  HEAD  4 127 97
  3_127_59  HEAD  4 128 60
  3_127_61  HEAD  4 128 62
  3_127_81  HEAD  4 128 82
  3_129_76  HEAD  4 130 77
  3_129_91  HEAD  4 130 92
  3_129_113  HEAD  4 130 114
  3_130_61  HEAD  4 131 62
  3_131_114  HEAD  4 132 115
  3_132_71  HEAD  4 133 72
  3_132_97  HEAD  4 133 98
  3_132_100  HEAD  4 133 101
  3_133_87  HEAD  4 134 88
  3_133_126  HEAD  4 134 127
  3_134_97  HEAD  4 135 98
  3_135_72  HEAD  4 136 73
  3_136_62  HEAD  4 137 63
  3_136_77  HEAD  4 137 78
  3_137_73  HEAD  4 138 74
  3_138_75  HEAD  4 139 76
  3_140_116  HEAD  4 141 117
  3_142_56  HEAD  4 143 57
  3_144_101  HEAD  4 145 102
  3_145_67  HEAD  4 146 68
  3_148_73  HEAD  4 149 74
  3_149_71  HEAD  4 150 72
  3_152_76  HEAD  4 153 77
  3_153_77  HEAD  4 154 78
  3_161_53  HEAD  4 162 54
  3_162_53  HEAD  4 163 54
  3_164_53  HEAD  4 165 54
END continuous  FILEOUT  heads.csv

