BEGIN options
END options

BEGIN packages
  DIS6  3D_cartes.dis  dis
  IC6  3D_cartes.ic  ic
  OC6  3D_cartes.oc  oc
  OBS6  3D_cartes.obs  head_obs
  NPF6  3D_cartes.npf  npf
  WEL6  3D_cartes.wel  wel
  RCH6  3D_cartes.rch  rch
  RCH6  irri.rch  irrig
  RCH6  p_agri.rch  p_agri
  WEL6  Corb.wel  corb
  CHD6  sea.chd  sea
  CHD6  thuir.chd  thuir
  DRN6  eta.drn  eta
  RIV6  agly.riv  agly
  RIV6  Tet.riv  tet
  RIV6  Rea.riv  rea
  RIV6  Cant.riv  cant
  RIV6  Tech.riv  tech
  RIV6  Bol.riv  bol
END packages

