BEGIN options
  SAVE_FLOWS
END options

BEGIN dimensions
  MAXBOUND  86
END dimensions

BEGIN period  1
  2 69 73      27.68944695       0.00300000      26.18944695
  2 69 74      27.05603643       0.00300000      25.55603643
  2 69 75      26.36350412       0.00300000      24.86350412
  2 70 75      25.94221060       0.00300000      24.44221060
  2 70 76      25.55353323       0.00300000      24.05353323
  2 71 76      24.86409805       0.00300000      23.36409805
  2 72 76      24.39560142       0.00300000      22.89560142
  2 72 77      23.99296975       0.00300000      22.49296975
  2 73 77      23.56440572       0.00300000      22.06440572
  2 73 78      23.10147569       0.00300000      21.60147569
  2 73 79      22.77351022       0.00300000      21.27351022
  2 72 79      22.41106713       0.00300000      20.91106713
  2 72 80      21.77713613       0.00300000      20.27713613
  2 71 80      21.39394546       0.00300000      19.89394546
  2 71 81      20.96592253       0.00300000      19.46592253
  2 71 82      20.39522808       0.00300000      18.89522808
  2 72 82      20.03025287       0.00300000      18.53025287
  2 72 83      19.59297086       0.00300000      18.09297086
  2 73 83      19.13606088       0.00300000      17.63606088
  2 73 84      18.66646642       0.00300000      17.16646642
  2 72 84      18.32896750       0.00300000      16.82896750
  2 72 85      17.95214352       0.00300000      16.45214352
  2 72 86      17.25398327       0.00300000      15.75398327
  2 72 87      16.60678605       0.00300000      15.10678605
  2 72 88      15.95934911       0.00300000      14.45934911
  2 72 89      15.31101303       0.00300000      13.81101303
  2 72 90      14.67070663       0.00300000      13.17070663
  2 72 91      14.03217933       0.00300000      12.53217933
  2 72 92      13.54397029       0.00300000      12.04397029
  2 73 92      12.86977307       0.00300000      11.36977307
  2 73 93      12.50037689       0.00300000      11.00037689
  2 73 94      12.11601488       0.00300000      10.61601488
  2 74 94      11.79297064       0.00300000      10.29297064
  2 74 95      11.53717221       0.00300000      10.03717221
  2 75 95      11.34571143       0.00300000       9.84571143
  2 75 94      11.12123427       0.00300000       9.62123427
  2 76 94      10.97607555       0.00300000       9.47607555
  2 76 95      10.65131592       0.00300000       9.15131592
  2 76 96      10.34121789       0.00300000       8.84121789
  2 77 96      10.11179131       0.00300000       8.61179131
  2 77 97       9.67679211       0.00300000       8.17679211
  2 77 98       9.21688413       0.00300000       7.71688413
  2 77 99       8.75964063       0.00300000       7.25964063
  2 77 100       8.31033488       0.00300000       6.81033488
  2 77 101       8.01479723       0.00300000       6.51479723
  2 78 101       7.70003851       0.00300000       6.20003851
  2 78 102       7.40885501       0.00300000       5.90885501
  2 79 102       7.10120210       0.00300000       5.60120210
  2 79 103       6.71705629       0.00300000       5.21705629
  2 80 103       6.48005858       0.00300000       4.98005858
  2 80 104       6.13141062       0.00300000       4.63141062
  2 80 105       5.67341748       0.00300000       4.17341748
  2 80 106       4.90715978       0.00300000       3.40715978
  2 80 107       4.72282995       0.00300000       3.22282995
  2 80 108       4.53417024       0.00300000       3.03417024
  2 80 109       4.40948046       0.00300000       2.90948046
  2 79 109       4.28084744       0.00300000       2.78084744
  2 79 110       4.12862206       0.00300000       2.62862206
  2 78 110       4.01947411       0.00300000       2.51947411
  2 78 111       3.85355593       0.00300000       2.35355593
  2 78 112       3.74465801       0.00300000       2.24465801
  2 77 112       3.63904913       0.00300000       2.13904913
  2 77 113       3.45263315       0.00300000       1.95263315
  2 76 113       3.34838068       0.00300000       1.84838068
  2 76 114       3.22209516       0.00300000       1.72209516
  2 76 115       3.02410298       0.00300000       1.52410298
  2 76 116       2.88495055       0.00300000       1.38495055
  2 75 116       2.79113823       0.00300000       1.29113823
  2 75 117       2.64742213       0.00300000       1.14742213
  2 75 118       2.45666236       0.00300000       0.95666236
  2 75 119       2.27680274       0.00300000       0.77680274
  2 74 119       2.18015181       0.00300000       0.68015181
  2 74 120       2.07092701       0.00300000       0.57092701
  2 74 121       1.87438360       0.00300000       0.37438360
  2 74 122       1.72741095       0.00300000       0.22741095
  2 73 122       1.63067688       0.00300000       0.13067688
  2 73 123       1.48686261       0.00300000      -0.01313739
  2 73 124       1.30121906       0.00300000      -0.19878094
  2 73 125       1.11781592       0.00300000      -0.38218408
  2 73 126       0.94728426       0.00300000      -0.55271574
  2 72 126       0.81132479       0.00300000      -0.68867521
  2 72 127       0.70143442       0.00300000      -0.79856558
  2 71 127       0.54647728       0.00300000      -0.95352272
  2 71 128       0.42815713       0.00300000      -1.07184287
  2 70 128       0.32386788       0.00300000      -1.17613212
  2 70 129       0.16777081       0.00300000      -1.33222919
END period  1

