BEGIN options
  SAVE_FLOWS
END options

BEGIN dimensions
  MAXBOUND  47
END dimensions

BEGIN period  1
  2 117 6     178.18748053       0.01000000     176.68748053
  2 117 7     176.01157043       0.01000000     174.51157043
  2 116 7     173.82815656       0.01000000     172.32815656
  2 116 8     172.88229626       0.01000000     171.38229626
  2 116 9     171.33164082       0.01000000     169.83164082
  2 116 10     167.49509280       0.01000000     165.99509280
  2 116 11     164.38316950       0.01000000     162.88316950
  2 115 12     158.11695393       0.01000000     156.61695393
  2 115 13     156.82977130       0.01000000     155.32977130
  2 114 13     155.73437124       0.01000000     154.23437124
  2 114 14     153.56678480       0.01000000     152.06678480
  2 113 14     152.68784576       0.01000000     151.18784576
  2 113 15     151.54951345       0.01000000     150.04951345
  2 112 15     150.75300806       0.01000000     149.25300806
  2 112 16     147.76445958       0.01000000     146.26445958
  2 112 17     146.18897543       0.01000000     144.68897543
  2 111 17     143.28898851       0.01000000     141.78898851
  2 111 18     141.81303484       0.01000000     140.31303484
  2 110 18     140.91868381       0.01000000     139.41868381
  2 110 19     138.16830732       0.01000000     136.66830732
  2 110 20     136.84249535       0.01000000     135.34249535
  2 109 20     135.96912644       0.01000000     134.46912644
  2 109 21     133.24554601       0.01000000     131.74554601
  2 108 21     132.39587823       0.01000000     130.89587823
  2 108 22     131.48713363       0.01000000     129.98713363
  2 108 23     130.39284214       0.01000000     128.89284214
  2 107 23     128.29805588       0.01000000     126.79805588
  2 107 24     126.66606391       0.01000000     125.16606391
  2 107 25     123.17133274       0.01000000     121.67133274
  2 107 26     122.11602461       0.01000000     120.61602461
  2 106 26     121.27382156       0.01000000     119.77382156
  2 106 27     117.74591529       0.01000000     116.24591529
  2 106 28     114.00000000       0.01000000     112.50000000
  2 106 29     113.36526533       0.01000000     111.86526533
  2 106 30     112.11340153       0.01000000     110.61340153
  2 106 31     110.87986063       0.01000000     109.37986063
  2 106 32     108.18188756       0.01000000     106.68188756
  2 106 33     106.85882608       0.01000000     105.35882608
  2 105 33     106.01478076       0.01000000     104.51478076
  2 105 34     103.37271104       0.01000000     101.87271104
  2 105 35     102.12151548       0.01000000     100.62151548
  2 105 36     101.23505562       0.01000000      99.73505562
  2 104 36     100.55116515       0.01000000      99.05116515
  2 104 37      98.31225326       0.01000000      96.81225326
  2 103 37      97.17480937       0.01000000      95.67480937
  2 103 38      96.37884126       0.01000000      94.87884126
  2 102 38      92.09650761       0.01000000      90.59650761
END period  1

