BEGIN options
  SAVE_FLOWS
END options

BEGIN dimensions
  MAXBOUND  66
END dimensions

BEGIN period  1
  4 136 48     138.34860703       0.00300000     136.84860703
  4 135 48     132.62611935       0.00300000     131.12611935
  4 135 49     129.38230255       0.00300000     127.88230255
  4 135 50     128.34733100       0.00300000     126.84733100
  4 135 51     126.20415965       0.00300000     124.70415965
  4 136 51     125.18614705       0.00300000     123.68614705
  4 136 52     121.75612097       0.00300000     120.25612097
  4 136 53     119.78231831       0.00300000     118.28231831
  2 135 53     118.43113693       0.00300000     116.93113693
  2 135 54     116.50884625       0.00300000     115.00884625
  2 135 55     113.22458098       0.00300000     111.72458098
  2 135 56     113.96586913       0.00300000     112.46586913
  4 134 56     113.17608777       0.00300000     111.67608777
  4 134 57     111.13282895       0.00300000     109.63282895
  4 134 58     110.61512587       0.00300000     109.11512587
  2 135 58     109.29813057       0.00300000     107.79813057
  4 136 58     109.07027311       0.00300000     107.57027311
  4 136 59     109.03773549       0.00300000     107.53773549
  2 135 59     107.35124397       0.00300000     105.85124397
  4 135 60     105.44842625       0.00300000     103.94842625
  2 134 60     104.37173863       0.00300000     102.87173863
  2 134 61     103.02263978       0.00300000     101.52263978
  4 134 62     100.84405738       0.00300000      99.34405738
  2 133 62     100.76458943       0.00300000      99.26458943
  4 132 62     100.70682937       0.00300000      99.20682937
  2 133 63     100.66285594       0.00300000      99.16285594
  4 133 64      99.80805009       0.00300000      98.30805009
  2 132 64      98.44555316       0.00300000      96.94555316
  4 133 65      94.23019730       0.00300000      92.73019730
  2 132 65      92.41759689       0.00300000      90.91759689
  2 132 66      88.23540738       0.00300000      86.73540738
  5 131 66      86.60799536       0.00300000      85.10799536
  2 131 67      85.41535927       0.00300000      83.91535927
  2 132 67      81.80911448       0.00300000      80.30911448
  4 132 68      81.42446722       0.00300000      79.92446722
  2 131 68      79.95250273       0.00300000      78.45250273
  2 131 69      78.60005345       0.00300000      77.10005345
  2 131 70      77.33539164       0.00300000      75.83539164
  4 130 70      76.47480596       0.00300000      74.97480596
  2 130 71      75.60323461       0.00300000      74.10323461
  2 131 71      74.89221421       0.00300000      73.39221421
  4 131 72      74.43670232       0.00300000      72.93670232
  2 130 72      71.83539941       0.00300000      70.33539941
  2 129 72      70.65444326       0.00300000      69.15444326
  2 129 73      69.26712575       0.00300000      67.76712575
  2 128 73      67.26620831       0.00300000      65.76620831
  4 127 73      64.87790480       0.00300000      63.37790480
  2 127 74      63.73827935       0.00300000      62.23827935
  2 128 74      63.72561553       0.00300000      62.22561553
  2 128 75      63.30286331       0.00300000      61.80286331
  2 128 76      62.06636126       0.00300000      60.56636126
  2 127 76      61.54221488       0.00300000      60.04221488
  2 127 77      61.62748388       0.00300000      60.12748388
  2 126 77      60.93300738       0.00300000      59.43300738
  2 126 78      59.19176638       0.00300000      57.69176638
  2 126 79      57.73943008       0.00300000      56.23943008
  2 125 79      54.76687186       0.00300000      53.26687186
  2 125 80      53.07909903       0.00300000      51.57909903
  2 125 81      51.48167670       0.00300000      49.98167670
  2 124 81      48.65084715       0.00300000      47.15084715
  2 124 82      45.22489209       0.00300000      43.72489209
  2 124 83      44.00000000       0.00300000      42.50000000
  2 123 83      44.00000000       0.00300000      42.50000000
  2 123 84      44.00000000       0.00300000      42.50000000
  2 122 84      42.64450214       0.00300000      41.14450214
  2 122 85      40.14450214       0.00300000      38.64450214
END period  1

