BEGIN options
  SAVE_FLOWS
END options

BEGIN dimensions
  MAXBOUND  18569
END dimensions

BEGIN period  1
  1 2 140       0.00000000
  1 2 141       0.00000000
  1 2 142       0.00000000
  1 2 143       0.00000000
  1 2 144       0.00000000
  1 2 145       0.00000000
  1 2 146       0.00000000
  1 2 147       0.00000000
  1 2 148       0.00000000
  1 2 149       0.00000000
  1 2 150       0.00000000
  1 2 151       0.00000000
  1 2 152       0.00000000
  1 2 153       0.00000000
  1 2 154       0.00000000
  1 2 155       0.00000000
  1 2 156       0.00000000
  1 2 157       0.00000000
  1 2 158       0.00000000
  1 2 159       0.00000000
  1 2 160       0.00000000
  1 2 161       0.00000000
  1 2 162       0.00000000
  1 2 163       0.00000000
  1 2 164       0.00000000
  1 2 165       0.00000000
  1 2 166       0.00000000
  1 2 167       0.00000000
  1 2 168       0.00000000
  1 2 169       0.00000000
  1 2 170       0.00000000
  1 2 171       0.00000000
  1 2 172       0.00000000
  1 2 173       0.00000000
  1 2 174       0.00000000
  1 2 175       0.00000000
  1 2 176       0.00000000
  1 2 177       0.00000000
  1 2 178       0.00000000
  1 2 179       0.00000000
  1 2 180       0.00000000
  1 2 181       0.00000000
  1 2 182       0.00000000
  1 2 183       0.00000000
  1 3 139       0.00000000
  1 3 140       0.00000000
  1 3 141       0.00000000
  1 3 142       0.00000000
  1 3 143       0.00000000
  1 3 144       0.00000000
  1 3 145       0.00000000
  1 3 146       0.00000000
  1 3 147       0.00000000
  1 3 148       0.00000000
  1 3 149       0.00000000
  1 3 150       0.00000000
  1 3 151       0.00000000
  1 3 152       0.00000000
  1 3 153       0.00000000
  1 3 154       0.00000000
  1 3 155       0.00000000
  1 3 156       0.00000000
  1 3 157       0.00000000
  1 3 158       0.00000000
  1 3 159       0.00000000
  1 3 160       0.00000000
  1 3 161       0.00000000
  1 3 162       0.00000000
  1 3 163       0.00000000
  1 3 164       0.00000000
  1 3 165       0.00000000
  1 3 166       0.00000000
  1 3 167       0.00000000
  1 3 168       0.00000000
  1 3 169       0.00000000
  1 3 170       0.00000000
  1 3 171       0.00000000
  1 3 172       0.00000000
  1 3 173       0.00000000
  1 3 174       0.00000000
  1 3 175       0.00000000
  1 3 176       0.00000000
  1 3 177       0.00000000
  1 3 178       0.00000000
  1 3 179       0.00000000
  1 3 180       0.00000000
  1 3 181       0.00000000
  1 3 182       0.00000000
  1 3 183       0.00000000
  1 4 139       0.00000000
  1 4 140       0.00000000
  1 4 141       0.00000000
  1 4 142       0.00000000
  1 4 143       0.00000000
  1 4 144       0.00000000
  1 4 145       0.00000000
  1 4 146       0.00000000
  1 4 147       0.00000000
  1 4 148       0.00000000
  1 4 149       0.00000000
  1 4 150       0.00000000
  1 4 151       0.00000000
  1 4 152       0.00000000
  1 4 153       0.00000000
  1 4 154       0.00000000
  1 4 155       0.00000000
  1 4 156       0.00000000
  1 4 157       0.00000000
  1 4 158       0.00000000
  1 4 159       0.00000000
  1 4 160       0.00000000
  1 4 161       0.00000000
  1 4 162       0.00000000
  1 4 163       0.00000000
  1 4 164       0.00000000
  1 4 165       0.00000000
  1 4 166       0.00000000
  1 4 167       0.00000000
  1 4 168       0.00000000
  1 4 169       0.00000000
  1 4 170       0.00000000
  1 4 171       0.00000000
  1 4 172       0.00000000
  1 4 173       0.00000000
  1 4 174       0.00000000
  1 4 175       0.00000000
  1 4 176       0.00000000
  1 4 177       0.00000000
  1 4 178       0.00000000
  1 4 179       0.00000000
  1 4 180       0.00000000
  1 4 181       0.00000000
  1 4 182       0.00000000
  1 4 183       0.00000000
  1 5 139       0.00000000
  1 5 140       0.00000000
  1 5 141       0.00000000
  1 5 142       0.00000000
  1 5 143       0.00000000
  1 5 144       0.00000000
  1 5 145       0.00000000
  1 5 146       0.00000000
  1 5 147       0.00000000
  1 5 148       0.00000000
  1 5 149       0.00000000
  1 5 150       0.00000000
  1 5 151       0.00000000
  1 5 152       0.00000000
  1 5 153       0.00000000
  1 5 154       0.00000000
  1 5 155       0.00000000
  1 5 156       0.00000000
  1 5 157       0.00000000
  1 5 158       0.00000000
  1 5 159       0.00000000
  1 5 160       0.00000000
  1 5 161       0.00000000
  1 5 162       0.00000000
  1 5 163       0.00000000
  1 5 164       0.00000000
  1 5 165       0.00000000
  1 5 166       0.00000000
  1 5 167       0.00000000
  1 5 168       0.00000000
  1 5 169       0.00000000
  1 5 170       0.00000000
  1 5 171       0.00000000
  1 5 172       0.00000000
  1 5 173       0.00000000
  1 5 174       0.00000000
  1 5 175       0.00000000
  1 5 176       0.00000000
  1 5 177       0.00000000
  1 5 178       0.00000000
  1 5 179       0.00000000
  1 5 180       0.00000000
  1 5 181       0.00000000
  1 5 182       0.00000000
  1 5 183       0.00000000
  1 6 139       0.00000000
  1 6 140       0.00000000
  1 6 141       0.00000000
  1 6 142       0.00000000
  1 6 143       0.00000000
  1 6 144       0.00000000
  1 6 145       0.00000000
  1 6 146       0.00000000
  1 6 147       0.00000000
  1 6 148       0.00000000
  1 6 149       0.00000000
  1 6 150       0.00000000
  1 6 151       0.00000000
  1 6 152       0.00000000
  1 6 153       0.00000000
  1 6 154       0.00000000
  1 6 155       0.00000000
  1 6 156       0.00000000
  1 6 157       0.00000000
  1 6 158       0.00000000
  1 6 159       0.00000000
  1 6 160       0.00000000
  1 6 161       0.00000000
  1 6 162       0.00000000
  1 6 163       0.00000000
  1 6 164       0.00000000
  1 6 165       0.00000000
  1 6 166       0.00000000
  1 6 167       0.00000000
  1 6 168       0.00000000
  1 6 169       0.00000000
  1 6 170       0.00000000
  1 6 171       0.00000000
  1 6 172       0.00000000
  1 6 173       0.00000000
  1 6 174       0.00000000
  1 6 175       0.00000000
  1 6 176       0.00000000
  1 6 177       0.00000000
  1 6 178       0.00000000
  1 6 179       0.00000000
  1 6 180       0.00000000
  1 6 181       0.00000000
  1 6 182       0.00000000
  1 6 183       0.00000000
  1 7 139       0.00000000
  1 7 140       0.00000000
  1 7 141       0.00000000
  1 7 142       0.00000000
  1 7 143       0.00000000
  1 7 144       0.00000000
  1 7 145       0.00000000
  1 7 146       0.00000000
  1 7 147       0.00000000
  1 7 148       0.00000000
  1 7 149       0.00000000
  1 7 150       0.00000000
  1 7 151       0.00000000
  1 7 152       0.00000000
  1 7 153       0.00000000
  1 7 154       0.00000000
  1 7 155       0.00000000
  1 7 156       0.00000000
  1 7 157       0.00000000
  1 7 158       0.00000000
  1 7 159       0.00000000
  1 7 160       0.00000000
  1 7 161       0.00000000
  1 7 162       0.00000000
  1 7 163       0.00000000
  1 7 164       0.00000000
  1 7 165       0.00000000
  1 7 166       0.00000000
  1 7 167       0.00000000
  1 7 168       0.00000000
  1 7 169       0.00000000
  1 7 170       0.00000000
  1 7 171       0.00000000
  1 7 172       0.00000000
  1 7 173       0.00000000
  1 7 174       0.00000000
  1 7 175       0.00000000
  1 7 176       0.00000000
  1 7 177       0.00000000
  1 7 178       0.00000000
  1 7 179       0.00000000
  1 7 180       0.00000000
  1 7 181       0.00000000
  1 7 182       0.00000000
  1 7 183       0.00000000
  1 8 138       0.00000000
  1 8 139       0.00000000
  1 8 140       0.00000000
  1 8 141       0.00000000
  1 8 142       0.00000000
  1 8 143       0.00000000
  1 8 144       0.00000000
  1 8 145       0.00000000
  1 8 146       0.00000000
  1 8 147       0.00000000
  1 8 148       0.00000000
  1 8 149       0.00000000
  1 8 150       0.00000000
  1 8 151       0.00000000
  1 8 152       0.00000000
  1 8 153       0.00000000
  1 8 154       0.00000000
  1 8 155       0.00000000
  1 8 156       0.00000000
  1 8 157       0.00000000
  1 8 158       0.00000000
  1 8 159       0.00000000
  1 8 160       0.00000000
  1 8 161       0.00000000
  1 8 162       0.00000000
  1 8 163       0.00000000
  1 8 164       0.00000000
  1 8 165       0.00000000
  1 8 166       0.00000000
  1 8 167       0.00000000
  1 8 168       0.00000000
  1 8 169       0.00000000
  1 8 170       0.00000000
  1 8 171       0.00000000
  1 8 172       0.00000000
  1 8 173       0.00000000
  1 8 174       0.00000000
  1 8 175       0.00000000
  1 8 176       0.00000000
  1 8 177       0.00000000
  1 8 178       0.00000000
  1 8 179       0.00000000
  1 8 180       0.00000000
  1 8 181       0.00000000
  1 8 182       0.00000000
  1 8 183       0.00000000
  1 9 138       0.00000000
  1 9 139       0.00000000
  1 9 140       0.00000000
  1 9 141       0.00000000
  1 9 142       0.00000000
  1 9 143       0.00000000
  1 9 144       0.00000000
  1 9 145       0.00000000
  1 9 146       0.00000000
  1 9 147       0.00000000
  1 9 148       0.00000000
  1 9 149       0.00000000
  1 9 150       0.00000000
  1 9 151       0.00000000
  1 9 152       0.00000000
  1 9 153       0.00000000
  1 9 154       0.00000000
  1 9 155       0.00000000
  1 9 156       0.00000000
  1 9 157       0.00000000
  1 9 158       0.00000000
  1 9 159       0.00000000
  1 9 160       0.00000000
  1 9 161       0.00000000
  1 9 162       0.00000000
  1 9 163       0.00000000
  1 9 164       0.00000000
  1 9 165       0.00000000
  1 9 166       0.00000000
  1 9 167       0.00000000
  1 9 168       0.00000000
  1 9 169       0.00000000
  1 9 170       0.00000000
  1 9 171       0.00000000
  1 9 172       0.00000000
  1 9 173       0.00000000
  1 9 174       0.00000000
  1 9 175       0.00000000
  1 9 176       0.00000000
  1 9 177       0.00000000
  1 9 178       0.00000000
  1 9 179       0.00000000
  1 9 180       0.00000000
  1 9 181       0.00000000
  1 9 182       0.00000000
  1 9 183       0.00000000
  1 10 138       0.00000000
  1 10 139       0.00000000
  1 10 140       0.00000000
  1 10 141       0.00000000
  1 10 142       0.00000000
  1 10 143       0.00000000
  1 10 144       0.00000000
  1 10 145       0.00000000
  1 10 146       0.00000000
  1 10 147       0.00000000
  1 10 148       0.00000000
  1 10 149       0.00000000
  1 10 150       0.00000000
  1 10 151       0.00000000
  1 10 152       0.00000000
  1 10 153       0.00000000
  1 10 154       0.00000000
  1 10 155       0.00000000
  1 10 156       0.00000000
  1 10 157       0.00000000
  1 10 158       0.00000000
  1 10 159       0.00000000
  1 10 160       0.00000000
  1 10 161       0.00000000
  1 10 162       0.00000000
  1 10 163       0.00000000
  1 10 164       0.00000000
  1 10 165       0.00000000
  1 10 166       0.00000000
  1 10 167       0.00000000
  1 10 168       0.00000000
  1 10 169       0.00000000
  1 10 170       0.00000000
  1 10 171       0.00000000
  1 10 172       0.00000000
  1 10 173       0.00000000
  1 10 174       0.00000000
  1 10 175       0.00000000
  1 10 176       0.00000000
  1 10 177       0.00000000
  1 10 178       0.00000000
  1 10 179       0.00000000
  1 10 180       0.00000000
  1 10 181       0.00000000
  1 10 182       0.00000000
  1 10 183       0.00000000
  1 11 138       0.00000000
  1 11 139       0.00000000
  1 11 140       0.00000000
  1 11 141       0.00000000
  1 11 142       0.00000000
  1 11 143       0.00000000
  1 11 144       0.00000000
  1 11 145       0.00000000
  1 11 146       0.00000000
  1 11 147       0.00000000
  1 11 148       0.00000000
  1 11 149       0.00000000
  1 11 150       0.00000000
  1 11 151       0.00000000
  1 11 152       0.00000000
  1 11 153       0.00000000
  1 11 154       0.00000000
  1 11 155       0.00000000
  1 11 156       0.00000000
  1 11 157       0.00000000
  1 11 158       0.00000000
  1 11 159       0.00000000
  1 11 160       0.00000000
  1 11 161       0.00000000
  1 11 162       0.00000000
  1 11 163       0.00000000
  1 11 164       0.00000000
  1 11 165       0.00000000
  1 11 166       0.00000000
  1 11 167       0.00000000
  1 11 168       0.00000000
  1 11 169       0.00000000
  1 11 170       0.00000000
  1 11 171       0.00000000
  1 11 172       0.00000000
  1 11 173       0.00000000
  1 11 174       0.00000000
  1 11 175       0.00000000
  1 11 176       0.00000000
  1 11 177       0.00000000
  1 11 178       0.00000000
  1 11 179       0.00000000
  1 11 180       0.00000000
  1 11 181       0.00000000
  1 11 182       0.00000000
  1 11 183       0.00000000
  2 12 137       0.00000000
  1 12 138       0.00000000
  1 12 139       0.00000000
  1 12 140       0.00000000
  1 12 141       0.00000000
  1 12 142       0.00000000
  1 12 143       0.00000000
  1 12 144       0.00000000
  1 12 145       0.00000000
  1 12 146       0.00000000
  1 12 147       0.00000000
  1 12 148       0.00000000
  1 12 149       0.00000000
  1 12 150       0.00000000
  1 12 151       0.00000000
  1 12 152       0.00000000
  1 12 153       0.00000000
  1 12 154       0.00000000
  1 12 155       0.00000000
  1 12 156       0.00000000
  1 12 157       0.00000000
  1 12 158       0.00000000
  1 12 159       0.00000000
  1 12 160       0.00000000
  1 12 161       0.00000000
  1 12 162       0.00000000
  1 12 163       0.00000000
  1 12 164       0.00000000
  1 12 165       0.00000000
  1 12 166       0.00000000
  1 12 167       0.00000000
  1 12 168       0.00000000
  1 12 169       0.00000000
  1 12 170       0.00000000
  1 12 171       0.00000000
  1 12 172       0.00000000
  1 12 173       0.00000000
  1 12 174       0.00000000
  1 12 175       0.00000000
  1 12 176       0.00000000
  1 12 177       0.00000000
  1 12 178       0.00000000
  1 12 179       0.00000000
  1 12 180       0.00000000
  1 12 181       0.00000000
  1 12 182       0.00000000
  1 12 183       0.00000000
  5 13 125       0.00000000
  4 13 126       0.00000000
  4 13 127       0.00000000
  1 13 137       0.00000000
  1 13 138       0.00000000
  1 13 139       0.00000000
  1 13 140       0.00000000
  1 13 141       0.00000000
  1 13 142       0.00000000
  1 13 143       0.00000000
  1 13 144       0.00000000
  1 13 145       0.00000000
  1 13 146       0.00000000
  1 13 147       0.00000000
  1 13 148       0.00000000
  1 13 149       0.00000000
  1 13 150       0.00000000
  1 13 151       0.00000000
  1 13 152       0.00000000
  1 13 153       0.00000000
  1 13 154       0.00000000
  1 13 155       0.00000000
  1 13 156       0.00000000
  1 13 157       0.00000000
  1 13 158       0.00000000
  1 13 159       0.00000000
  1 13 160       0.00000000
  1 13 161       0.00000000
  1 13 162       0.00000000
  1 13 163       0.00000000
  1 13 164       0.00000000
  1 13 165       0.00000000
  1 13 166       0.00000000
  1 13 167       0.00000000
  1 13 168       0.00000000
  1 13 169       0.00000000
  1 13 170       0.00000000
  1 13 171       0.00000000
  1 13 172       0.00000000
  1 13 173       0.00000000
  1 13 174       0.00000000
  1 13 175       0.00000000
  1 13 176       0.00000000
  1 13 177       0.00000000
  1 13 178       0.00000000
  1 13 179       0.00000000
  1 13 180       0.00000000
  1 13 181       0.00000000
  1 13 182       0.00000000
  1 13 183       0.00000000
  5 14 123       0.00000000
  4 14 124       0.00000000
  4 14 125       0.00000000
  4 14 126       0.00000000
  4 14 127       0.00000000
  4 14 128       0.00000000
  4 14 129       0.00000000
  1 14 137       0.00000000
  1 14 138       0.00000000
  1 14 139       0.00000000
  1 14 140       0.00000000
  1 14 141       0.00000000
  1 14 142       0.00000000
  1 14 143       0.00000000
  1 14 144       0.00000000
  1 14 145       0.00000000
  1 14 146       0.00000000
  1 14 147       0.00000000
  1 14 148       0.00000000
  1 14 149       0.00000000
  1 14 150       0.00000000
  1 14 151       0.00000000
  1 14 152       0.00000000
  1 14 153       0.00000000
  1 14 154       0.00000000
  1 14 155       0.00000000
  1 14 156       0.00000000
  1 14 157       0.00000000
  1 14 158       0.00000000
  1 14 159       0.00000000
  1 14 160       0.00000000
  1 14 161       0.00000000
  1 14 162       0.00000000
  1 14 163       0.00000000
  1 14 164       0.00000000
  1 14 165       0.00000000
  1 14 166       0.00000000
  1 14 167       0.00000000
  1 14 168       0.00000000
  1 14 169       0.00000000
  1 14 170       0.00000000
  1 14 171       0.00000000
  1 14 172       0.00000000
  1 14 173       0.00000000
  1 14 174       0.00000000
  1 14 175       0.00000000
  1 14 176       0.00000000
  1 14 177       0.00000000
  1 14 178       0.00000000
  1 14 179       0.00000000
  1 14 180       0.00000000
  1 14 181       0.00000000
  1 14 182       0.00000000
  1 14 183       0.00000000
  4 15 124       0.00000000
  4 15 125       0.00000000
  4 15 126       0.00000000
  4 15 127       0.00000000
  4 15 128       0.00000000
  4 15 129       0.00000000
  4 15 130       0.00000000
  4 15 131       0.00000000
  4 15 132       0.00000000
  1 15 137       0.00000000
  1 15 138       0.00000000
  1 15 139       0.00000000
  1 15 140       0.00000000
  1 15 141       0.00000000
  1 15 142       0.00000000
  1 15 143       0.00000000
  1 15 144       0.00000000
  1 15 145       0.00000000
  1 15 146       0.00000000
  1 15 147       0.00000000
  1 15 148       0.00000000
  1 15 149       0.00000000
  1 15 150       0.00000000
  1 15 151       0.00000000
  1 15 152       0.00000000
  1 15 153       0.00000000
  1 15 154       0.00000000
  1 15 155       0.00000000
  1 15 156       0.00000000
  1 15 157       0.00000000
  1 15 158       0.00000000
  1 15 159       0.00000000
  1 15 160       0.00000000
  1 15 161       0.00000000
  1 15 162       0.00000000
  1 15 163       0.00000000
  1 15 164       0.00000000
  1 15 165       0.00000000
  1 15 166       0.00000000
  1 15 167       0.00000000
  1 15 168       0.00000000
  1 15 169       0.00000000
  1 15 170       0.00000000
  1 15 171       0.00000000
  1 15 172       0.00000000
  1 15 173       0.00000000
  1 15 174       0.00000000
  1 15 175       0.00000000
  1 15 176       0.00000000
  1 15 177       0.00000000
  1 15 178       0.00000000
  1 15 179       0.00000000
  1 15 180       0.00000000
  1 15 181       0.00000000
  1 15 182       0.00000000
  1 15 183       0.00000000
  4 16 124       0.00000000
  4 16 125       0.00000000
  4 16 126       0.00000000
  4 16 127       0.00000000
  4 16 128       0.00000000
  4 16 129       0.00000000
  4 16 130       0.00000000
  4 16 131       0.00000000
  4 16 132       0.00000000
  4 16 133       0.00000000
  1 16 136       0.00000000
  1 16 137       0.00000000
  1 16 138       0.00000000
  1 16 139       0.00000000
  1 16 140       0.00000000
  1 16 141       0.00000000
  1 16 142       0.00000000
  1 16 143       0.00000000
  1 16 144       0.00000000
  1 16 145       0.00000000
  1 16 146       0.00000000
  1 16 147       0.00000000
  1 16 148       0.00000000
  1 16 149       0.00000000
  1 16 150       0.00000000
  1 16 151       0.00000000
  1 16 152       0.00000000
  1 16 153       0.00000000
  1 16 154       0.00000000
  1 16 155       0.00000000
  1 16 156       0.00000000
  1 16 157       0.00000000
  1 16 158       0.00000000
  1 16 159       0.00000000
  1 16 160       0.00000000
  1 16 161       0.00000000
  1 16 162       0.00000000
  1 16 163       0.00000000
  1 16 164       0.00000000
  1 16 165       0.00000000
  1 16 166       0.00000000
  1 16 167       0.00000000
  1 16 168       0.00000000
  1 16 169       0.00000000
  1 16 170       0.00000000
  1 16 171       0.00000000
  1 16 172       0.00000000
  1 16 173       0.00000000
  1 16 174       0.00000000
  1 16 175       0.00000000
  1 16 176       0.00000000
  1 16 177       0.00000000
  1 16 178       0.00000000
  1 16 179       0.00000000
  1 16 180       0.00000000
  1 16 181       0.00000000
  1 16 182       0.00000000
  1 16 183       0.00000000
  4 17 124       0.00000000
  4 17 125       0.00000000
  4 17 126       0.00000000
  4 17 127       0.00000000
  4 17 128       0.00000000
  4 17 129       0.00000000
  4 17 130       0.00000000
  4 17 131       0.00000000
  4 17 132       0.00000000
  4 17 133       0.00000000
  4 17 134       0.00000000
  1 17 135       0.00000000
  1 17 136       0.00000000
  1 17 137       0.00000000
  1 17 138       0.00000000
  1 17 139       0.00000000
  1 17 140       0.00000000
  1 17 141       0.00000000
  1 17 142       0.00000000
  1 17 143       0.00000000
  1 17 144       0.00000000
  1 17 145       0.00000000
  1 17 146       0.00000000
  1 17 147       0.00000000
  1 17 148       0.00000000
  1 17 149       0.00000000
  1 17 150       0.00000000
  1 17 151       0.00000000
  1 17 152       0.00000000
  1 17 153       0.00000000
  1 17 154       0.00000000
  1 17 155       0.00000000
  1 17 156       0.00000000
  1 17 157       0.00000000
  1 17 158       0.00000000
  1 17 159       0.00000000
  1 17 160       0.00000000
  1 17 161       0.00000000
  1 17 162       0.00000000
  1 17 163       0.00000000
  1 17 164       0.00000000
  1 17 165       0.00000000
  1 17 166       0.00000000
  1 17 167       0.00000000
  1 17 168       0.00000000
  1 17 169       0.00000000
  1 17 170       0.00000000
  1 17 171       0.00000000
  1 17 172       0.00000000
  1 17 173       0.00000000
  1 17 174       0.00000000
  1 17 175       0.00000000
  1 17 176       0.00000000
  1 17 177       0.00000000
  1 17 178       0.00000000
  1 17 179       0.00000000
  1 17 180       0.00000000
  1 17 181       0.00000000
  1 17 182       0.00000000
  1 17 183       0.00000000
  4 18 124       0.00000000
  4 18 125       0.00000000
  4 18 126       0.00000000
  4 18 127       0.00000000
  4 18 128       0.00000000
  4 18 129       0.00000000
  4 18 130       0.00000000
  4 18 131       0.00000000
  4 18 132       0.00000000
  4 18 133       0.00000000
  4 18 134       0.00000000
  1 18 135       0.00000000
  1 18 136       0.00000000
  1 18 137       0.00000000
  1 18 138       0.00000000
  1 18 139       0.00000000
  1 18 140       0.00000000
  1 18 141       0.00000000
  1 18 142       0.00000000
  1 18 143       0.00000000
  1 18 144       0.00000000
  1 18 145       0.00000000
  1 18 146       0.00000000
  1 18 147       0.00000000
  1 18 148       0.00000000
  1 18 149       0.00000000
  1 18 150       0.00000000
  1 18 151       0.00000000
  1 18 152       0.00000000
  1 18 153       0.00000000
  1 18 154       0.00000000
  1 18 155       0.00000000
  1 18 156       0.00000000
  1 18 157       0.00000000
  1 18 158       0.00000000
  1 18 159       0.00000000
  1 18 160       0.00000000
  1 18 161       0.00000000
  1 18 162       0.00000000
  1 18 163       0.00000000
  1 18 164       0.00000000
  1 18 165       0.00000000
  1 18 166       0.00000000
  1 18 167       0.00000000
  1 18 168       0.00000000
  1 18 169       0.00000000
  1 18 170       0.00000000
  1 18 171       0.00000000
  1 18 172       0.00000000
  1 18 173       0.00000000
  1 18 174       0.00000000
  1 18 175       0.00000000
  1 18 176       0.00000000
  1 18 177       0.00000000
  1 18 178       0.00000000
  1 18 179       0.00000000
  1 18 180       0.00000000
  1 18 181       0.00000000
  1 18 182       0.00000000
  1 18 183       0.00000000
  4 19 125       0.00000000
  4 19 126       0.00000000
  4 19 127       0.00000000
  4 19 128       0.00000000
  4 19 129       0.00000000
  4 19 130       0.00000000
  4 19 131       0.00000000
  4 19 132       0.00000000
  4 19 133       0.00000000
  4 19 134       0.00000000
  1 19 135       0.00000000
  1 19 136       0.00000000
  1 19 137       0.00000000
  1 19 138       0.00000000
  1 19 139       0.00000000
  1 19 140       0.00000000
  1 19 141       0.00000000
  1 19 142       0.00000000
  1 19 143       0.00000000
  1 19 144       0.00000000
  1 19 145       0.00000000
  1 19 146       0.00000000
  1 19 147       0.00000000
  1 19 148       0.00000000
  1 19 149       0.00000000
  1 19 150       0.00000000
  1 19 151       0.00000000
  1 19 152       0.00000000
  1 19 153       0.00000000
  1 19 154       0.00000000
  1 19 155       0.00000000
  1 19 156       0.00000000
  1 19 157       0.00000000
  1 19 158       0.00000000
  1 19 159       0.00000000
  1 19 160       0.00000000
  1 19 161       0.00000000
  1 19 162       0.00000000
  1 19 163       0.00000000
  1 19 164       0.00000000
  1 19 165       0.00000000
  1 19 166       0.00000000
  1 19 167       0.00000000
  1 19 168       0.00000000
  1 19 169       0.00000000
  1 19 170       0.00000000
  1 19 171       0.00000000
  1 19 172       0.00000000
  1 19 173       0.00000000
  1 19 174       0.00000000
  1 19 175       0.00000000
  1 19 176       0.00000000
  1 19 177       0.00000000
  1 19 178       0.00000000
  1 19 179       0.00000000
  1 19 180       0.00000000
  1 19 181       0.00000000
  1 19 182       0.00000000
  1 19 183       0.00000000
  4 20 125       0.00000000
  4 20 126       0.00000000
  4 20 127       0.00000000
  4 20 128       0.00000000
  4 20 129       0.00000000
  4 20 130       0.00000000
  4 20 131       0.00000000
  4 20 132       0.00000000
  4 20 133       0.00000000
  4 20 134       0.00000000
  1 20 135       0.00000000
  1 20 136       0.00000000
  1 20 137       0.00000000
  1 20 138       0.00000000
  1 20 139       0.00000000
  1 20 140       0.00000000
  1 20 141       0.00000000
  1 20 142       0.00000000
  1 20 143       0.00000000
  1 20 144       0.00000000
  1 20 145       0.00000000
  1 20 146       0.00000000
  1 20 147       0.00000000
  1 20 148       0.00000000
  1 20 149       0.00000000
  1 20 150       0.00000000
  1 20 151       0.00000000
  1 20 152       0.00000000
  1 20 153       0.00000000
  1 20 154       0.00000000
  1 20 155       0.00000000
  1 20 156       0.00000000
  1 20 157       0.00000000
  1 20 158       0.00000000
  1 20 159       0.00000000
  1 20 160       0.00000000
  1 20 161       0.00000000
  1 20 162       0.00000000
  1 20 163       0.00000000
  1 20 164       0.00000000
  1 20 165       0.00000000
  1 20 166       0.00000000
  1 20 167       0.00000000
  1 20 168       0.00000000
  1 20 169       0.00000000
  1 20 170       0.00000000
  1 20 171       0.00000000
  1 20 172       0.00000000
  1 20 173       0.00000000
  1 20 174       0.00000000
  1 20 175       0.00000000
  1 20 176       0.00000000
  1 20 177       0.00000000
  1 20 178       0.00000000
  1 20 179       0.00000000
  1 20 180       0.00000000
  1 20 181       0.00000000
  1 20 182       0.00000000
  1 20 183       0.00000000
  4 21 128       0.00000000
  4 21 129       0.00000000
  4 21 130       0.00000000
  4 21 131       0.00000000
  4 21 132       0.00000000
  4 21 133       0.00000000
  4 21 134       0.00000000
  1 21 135       0.00000000
  1 21 136       0.00000000
  1 21 137       0.00000000
  1 21 138       0.00000000
  1 21 139       0.00000000
  1 21 140       0.00000000
  1 21 141       0.00000000
  1 21 142       0.00000000
  1 21 143       0.00000000
  1 21 144       0.00000000
  1 21 145       0.00000000
  1 21 146       0.00000000
  1 21 147       0.00000000
  1 21 148       0.00000000
  1 21 149       0.00000000
  1 21 150       0.00000000
  1 21 151       0.00000000
  1 21 152       0.00000000
  1 21 153       0.00000000
  1 21 154       0.00000000
  1 21 155       0.00000000
  1 21 156       0.00000000
  1 21 157       0.00000000
  1 21 158       0.00000000
  1 21 159       0.00000000
  1 21 160       0.00000000
  1 21 161       0.00000000
  1 21 162       0.00000000
  1 21 163       0.00000000
  1 21 164       0.00000000
  1 21 165       0.00000000
  1 21 166       0.00000000
  1 21 167       0.00000000
  1 21 168       0.00000000
  1 21 169       0.00000000
  1 21 170       0.00000000
  1 21 171       0.00000000
  1 21 172       0.00000000
  1 21 173       0.00000000
  1 21 174       0.00000000
  1 21 175       0.00000000
  1 21 176       0.00000000
  1 21 177       0.00000000
  1 21 178       0.00000000
  1 21 179       0.00000000
  1 21 180       0.00000000
  1 21 181       0.00000000
  1 21 182       0.00000000
  1 21 183       0.00000000
  4 22 129       0.00000000
  4 22 130       0.00000000
  4 22 131       0.00000000
  4 22 132       0.00000000
  2 22 133       0.00000000
  2 22 134       0.00000000
  1 22 135       0.00000000
  1 22 136       0.00000000
  1 22 137       0.00000000
  1 22 138       0.00000000
  1 22 139       0.00000000
  1 22 140       0.00000000
  1 22 141       0.00000000
  1 22 142       0.00000000
  1 22 143       0.00000000
  1 22 144       0.00000000
  1 22 145       0.00000000
  1 22 146       0.00000000
  1 22 147       0.00000000
  1 22 148       0.00000000
  1 22 149       0.00000000
  1 22 150       0.00000000
  1 22 151       0.00000000
  1 22 152       0.00000000
  1 22 153       0.00000000
  1 22 154       0.00000000
  1 22 155       0.00000000
  1 22 156       0.00000000
  1 22 157       0.00000000
  1 22 158       0.00000000
  1 22 159       0.00000000
  1 22 160       0.00000000
  1 22 161       0.00000000
  1 22 162       0.00000000
  1 22 163       0.00000000
  1 22 164       0.00000000
  1 22 165       0.00000000
  1 22 166       0.00000000
  1 22 167       0.00000000
  1 22 168       0.00000000
  1 22 169       0.00000000
  1 22 170       0.00000000
  1 22 171       0.00000000
  1 22 172       0.00000000
  1 22 173       0.00000000
  1 22 174       0.00000000
  1 22 175       0.00000000
  1 22 176       0.00000000
  1 22 177       0.00000000
  1 22 178       0.00000000
  1 22 179       0.00000000
  1 22 180       0.00000000
  1 22 181       0.00000000
  1 22 182       0.00000000
  1 22 183       0.00000000
  4 23 127       0.00000000
  4 23 128       0.00000000
  4 23 129       0.00000000
  4 23 130       0.00000000
  4 23 131       0.00000000
  2 23 132       0.00000000
  2 23 133       0.00000000
  2 23 134       0.00000000
  1 23 135       0.00000000
  1 23 136       0.00000000
  1 23 137       0.00000000
  1 23 138       0.00000000
  1 23 139       0.00000000