BEGIN options
  SAVE_FLOWS
END options

BEGIN dimensions
  MAXBOUND  129
END dimensions

BEGIN period  1
  4 140 57     123.48642296       0.00300000     121.98642296
  4 140 58     122.93324442       0.00300000     121.43324442
  2 141 58     121.88379036       0.00300000     120.38379036
  2 141 59     118.21445180       0.00300000     116.71445180
  4 140 59     117.21629308       0.00300000     115.71629308
  4 140 60     116.94791297       0.00300000     115.44791297
  2 141 60     116.19189907       0.00300000     114.69189907
  4 142 60     115.33229732       0.00300000     113.83229732
  2 142 61     112.77484728       0.00300000     111.27484728
  2 142 62     108.05321104       0.00300000     106.55321104
  2 142 63     106.20627912       0.00300000     104.70627912
  2 142 64     102.23693450       0.00300000     100.73693450
  2 142 65     101.12946141       0.00300000      99.62946141
  5 141 65     100.50447247       0.00300000      99.00447247
  2 141 66      99.00000000       0.00300000      97.50000000
  2 141 67      97.81146761       0.00300000      96.31146761
  2 141 68      93.25664037       0.00300000      91.75664037
  5 140 68      92.44319424       0.00300000      90.94319424
  2 140 69      91.80611291       0.00300000      90.30611291
  4 141 69      91.05364269       0.00300000      89.55364269
  4 140 70      90.31961330       0.00300000      88.81961330
  5 139 70      88.21950470       0.00300000      86.71950470
  2 139 71      86.08083079       0.00300000      84.58083079
  5 138 71      83.81535229       0.00300000      82.31535229
  2 138 72      82.76754469       0.00300000      81.26754469
  2 138 73      81.80472141       0.00300000      80.30472141
  2 137 73      81.07769943       0.00300000      79.57769943
  2 137 74      78.11507226       0.00300000      76.61507226
  2 138 74      77.14552182       0.00300000      75.64552182
  2 138 75      76.08152871       0.00300000      74.58152871
  2 138 76      74.22699041       0.00300000      72.72699041
  2 138 77      71.34359389       0.00300000      69.84359389
  2 137 77      69.00000000       0.00300000      67.50000000
  2 136 77      69.00000000       0.00300000      67.50000000
  2 135 77      69.00000000       0.00300000      67.50000000
  2 135 78      67.63860129       0.00300000      66.13860129
  2 134 78      66.20078652       0.00300000      64.70078652
  2 135 79      64.00000000       0.00300000      62.50000000
  4 135 80      64.00000000       0.00300000      62.50000000
  2 134 80      63.01614282       0.00300000      61.51614282
  2 133 80      58.21206058       0.00300000      56.71206058
  4 133 81      57.33625404       0.00300000      55.83625404
  2 132 81      57.17098833       0.00300000      55.67098833
  2 132 80      56.65671912       0.00300000      55.15671912
  2 131 80      55.99736912       0.00300000      54.49736912
  2 131 81      55.47237282       0.00300000      53.97237282
  2 130 81      53.31454119       0.00300000      51.81454119
  2 130 82      52.20051853       0.00300000      50.70051853
  2 129 82      51.17467392       0.00300000      49.67467392
  2 128 82      50.45787411       0.00300000      48.95787411
  2 128 83      48.45264607       0.00300000      46.95264607
  2 127 83      47.70284383       0.00300000      46.20284383
  4 127 84      47.18634791       0.00300000      45.68634791
  2 126 84      46.32968018       0.00300000      44.82968018
  2 125 84      45.45573343       0.00300000      43.95573343
  2 125 85      44.95576474       0.00300000      43.45576474
  2 124 84      43.07950941       0.00300000      41.57950941
  2 124 85      41.80343533       0.00300000      40.30343533
  2 123 85      38.33073397       0.00300000      36.83073397
  2 122 86      36.42221761       0.00300000      34.92221761
  2 121 86      35.69172918       0.00300000      34.19172918
  2 121 87      33.51801316       0.00300000      32.01801316
  2 121 88      33.02209177       0.00300000      31.52209177
  2 120 88      32.59269172       0.00300000      31.09269172
  2 120 89      31.82305222       0.00300000      30.32305222
  2 120 90      31.10914800       0.00300000      29.60914800
  2 120 91      30.40414637       0.00300000      28.90414637
  2 119 91      29.96432744       0.00300000      28.46432744
  2 119 92      28.60833574       0.00300000      27.10833574
  2 118 92      28.17800982       0.00300000      26.67800982
  2 118 93      27.72693362       0.00300000      26.22693362
  4 118 94      27.24789782       0.00300000      25.74789782
  2 117 94      26.88158960       0.00300000      25.38158960
  2 117 95      26.25054131       0.00300000      24.75054131
  2 117 96      25.59975311       0.00300000      24.09975311
  2 117 97      24.96060382       0.00300000      23.46060382
  2 117 98      23.43129760       0.00300000      21.93129760
  2 117 99      22.29188496       0.00300000      20.79188496
  2 117 100      21.12756269       0.00300000      19.62756269
  2 117 101      19.92266015       0.00300000      18.42266015
  2 117 102      18.93591108       0.00300000      17.43591108
  2 118 102      18.30061775       0.00300000      16.80061775
  2 118 103      17.34049125       0.00300000      15.84049125
  2 118 104      16.48553009       0.00300000      14.98553009
  2 119 104      15.88554117       0.00300000      14.38554117
  2 119 105      14.81615370       0.00300000      13.31615370
  2 119 106      12.36487644       0.00300000      10.86487644
  2 119 107      11.10901940       0.00300000       9.60901940
  2 118 107       9.85381248       0.00300000       8.35381248
  2 117 107       8.95483808       0.00300000       7.45483808
  2 117 108       8.60717108       0.00300000       7.10717108
  2 117 109       8.22054777       0.00300000       6.72054777
  2 116 109       7.88038152       0.00300000       6.38038152
  2 116 110       7.51324776       0.00300000       6.01324776
  2 115 110       7.23341701       0.00300000       5.73341701
  2 115 111       6.81641662       0.00300000       5.31641662
  2 115 112       6.31653602       0.00300000       4.81653602
  2 115 113       6.02416798       0.00300000       4.52416798
  2 116 113       5.72548383       0.00300000       4.22548383
  2 116 114       5.21773957       0.00300000       3.71773957
  2 116 115       4.71563141       0.00300000       3.21563141
  2 116 116       4.18352221       0.00300000       2.68352221
  2 116 117       3.78578963       0.00300000       2.28578963
  2 115 117       3.49589553       0.00300000       1.99589553
  2 115 118       3.10870564       0.00300000       1.60870564
  2 114 118       2.72929105       0.00300000       1.22929105
  2 114 119       2.40956302       0.00300000       0.90956302
  2 113 119       2.01748692       0.00300000       0.51748692
  2 113 120       1.69544698       0.00300000       0.19544698
  2 112 120       1.31134888       0.00300000      -0.18865112
  2 112 121       0.98600557       0.00300000      -0.51399443
  2 111 121       0.63391535       0.00300000      -0.86608465
  2 110 121       0.27656416       0.00300000      -1.22343584
  2 110 122      -0.05093869       0.00300000      -1.55093869
  2 109 122      -0.43637427       0.00300000      -1.93637427
  2 109 123      -0.95822077       0.00300000      -2.45822077
  2 108 123      -0.89087695       0.00300000      -2.39087695
  2 108 124      -0.79600195       0.00300000      -2.29600195
  2 109 124      -0.71891783       0.00300000      -2.21891783
  2 109 125      -0.67130086       0.00300000      -2.17130086
  2 110 125      -0.58654694       0.00300000      -2.08654694
  2 111 125      -0.49781008       0.00300000      -1.99781008
  2 112 125      -0.41012953       0.00300000      -1.91012953
  2 113 125      -0.32232279       0.00300000      -1.82232279
  2 114 125      -0.23411534       0.00300000      -1.73411534
  2 115 125      -0.16554161       0.00300000      -1.66554161
  2 115 126      -0.09030796       0.00300000      -1.59030796
  2 115 127       0.00442242       0.00300000      -1.49557758
  2 115 128       0.07411893       0.00300000      -1.42588107
END period  1

