BEGIN options
  SAVE_FLOWS
END options

BEGIN dimensions
  MAXBOUND  113
END dimensions

BEGIN period  1
  2 175 49     130.45348149       0.00300000     128.95348149
  2 175 50     128.82099223       0.00300000     127.32099223
  2 175 51     126.59978992       0.00300000     125.09978992
  2 175 52     124.39950956       0.00300000     122.89950956
  2 175 53     122.23643885       0.00300000     120.73643885
  2 175 54     120.05197032       0.00300000     118.55197032
  2 175 55     117.69256705       0.00300000     116.19256705
  2 175 56     115.63557653       0.00300000     114.13557653
  2 174 56     113.76836305       0.00300000     112.26836305
  2 173 56     111.63287491       0.00300000     110.13287491
  2 172 56     110.19683979       0.00300000     108.69683979
  2 172 57     109.06257602       0.00300000     107.56257602
  2 171 57     106.97088918       0.00300000     105.47088918
  2 171 58     104.55715127       0.00300000     103.05715127
  2 171 59     102.43038078       0.00300000     100.93038078
  2 171 60     100.31654444       0.00300000      98.81654444
  2 171 61      98.19872601       0.00300000      96.69872601
  2 171 62      96.21596676       0.00300000      94.71596676
  2 170 62      95.15947849       0.00300000      93.65947849
  2 170 63      93.97407842       0.00300000      92.47407842
  2 170 64      91.84825008       0.00300000      90.34825008
  2 170 65      89.55705487       0.00300000      88.05705487
  2 170 66      87.94016300       0.00300000      86.44016300
  2 169 66      86.59601017       0.00300000      85.09601017
  2 169 67      85.00572759       0.00300000      83.50572759
  2 168 67      83.59638522       0.00300000      82.09638522
  2 167 68      80.60085248       0.00300000      79.10085248
  5 164 77      60.82218747       0.00300000      59.32218747
  5 162 76      59.15765248       0.00300000      57.65765248
  5 162 77      58.55070328       0.00300000      57.05070328
  2 161 77      57.55492639       0.00300000      56.05492639
  5 161 78      56.35210701       0.00300000      54.85210701
  2 160 79      54.75097954       0.00300000      53.25097954
  2 160 80      53.88154486       0.00300000      52.38154486
  2 159 80      52.95139891       0.00300000      51.45139891
  2 159 81      52.25892656       0.00300000      50.75892656
  2 158 81      51.40215270       0.00300000      49.90215270
  2 158 82      50.51662892       0.00300000      49.01662892
  2 157 82      49.80029817       0.00300000      48.30029817
  2 157 83      48.83220733       0.00300000      47.33220733
  2 156 83      48.10983699       0.00300000      46.60983699
  2 156 84      47.27364177       0.00300000      45.77364177
  2 155 84      46.47928344       0.00300000      44.97928344
  2 155 85      45.72932325       0.00300000      44.22932325
  2 155 86      44.82450663       0.00300000      43.32450663
  2 154 86      44.14414600       0.00300000      42.64414600
  2 154 87      43.28112884       0.00300000      41.78112884
  2 155 87      42.66672557       0.00300000      41.16672557
  2 154 88      41.67261537       0.00300000      40.17261537
  2 154 89      40.85804901       0.00300000      39.35804901
  2 153 89      39.98463255       0.00300000      38.48463255
  2 152 89      39.15673177       0.00300000      37.65673177
  2 152 90      38.40527924       0.00300000      36.90527924
  2 152 91      37.44018726       0.00300000      35.94018726
  2 151 91      36.80553354       0.00300000      35.30553354
  2 151 92      35.69921932       0.00300000      34.19921932
  2 151 93      34.86695244       0.00300000      33.36695244
  2 150 93      34.28497295       0.00300000      32.78497295
  2 150 94      33.07958966       0.00300000      31.57958966
  2 149 94      31.75831826       0.00300000      30.25831826
  2 149 95      31.16027812       0.00300000      29.66027812
  2 148 94      31.03789409       0.00300000      29.53789409
  2 148 95      30.42981950       0.00300000      28.92981950
  2 147 95      29.34607419       0.00300000      27.84607419
  2 146 95      28.36066341       0.00300000      26.86066341
  2 146 96      26.24838558       0.00300000      24.74838558
  2 146 97      25.31225073       0.00300000      23.81225073
  2 146 98      24.73241944       0.00300000      23.23241944
  2 147 98      24.23766472       0.00300000      22.73766472
  2 147 99      23.42549029       0.00300000      21.92549029
  2 147 100      22.63709281       0.00300000      21.13709281
  2 146 100      22.10755665       0.00300000      20.60755665
  2 146 101      21.56475135       0.00300000      20.06475135
  2 145 101      20.74031003       0.00300000      19.24031003
  2 144 101      20.24858147       0.00300000      18.74858147
  2 144 102      19.72819180       0.00300000      18.22819180
  2 143 102      19.10486412       0.00300000      17.60486412
  2 143 103      18.47460074       0.00300000      16.97460074
  2 143 104      17.69069573       0.00300000      16.19069573
  2 142 104      17.26916368       0.00300000      15.76916368
  2 143 105      16.96255840       0.00300000      15.46255840
  2 142 105      16.54759336       0.00300000      15.04759336
  2 143 106      15.90326041       0.00300000      14.40326041
  2 143 107      15.06563117       0.00300000      13.56563117
  2 143 108      14.24446785       0.00300000      12.74446785
  2 143 109      13.53853322       0.00300000      12.03853322
  2 142 109      13.11313694       0.00300000      11.61313694
  2 142 110      12.57086738       0.00300000      11.07086738
  2 142 111      11.74798724       0.00300000      10.24798724
  2 142 112      10.92178656       0.00300000       9.42178656
  2 142 113      10.08262786       0.00300000       8.58262786
  2 142 114       9.24185365       0.00300000       7.74185365
  2 142 115       7.77283158       0.00300000       6.27283158
  2 142 116       7.32011474       0.00300000       5.82011474
  2 142 117       6.86119226       0.00300000       5.36119226
  2 142 118       6.37830539       0.00300000       4.87830539
  2 142 119       6.06412068       0.00300000       4.56412068
  2 143 119       5.81171219       0.00300000       4.31171219
  2 143 120       5.39709878       0.00300000       3.89709878
  2 143 121       4.94092454       0.00300000       3.44092454
  2 143 122       4.48505422       0.00300000       2.98505422
  2 143 123       4.02402437       0.00300000       2.52402437
  2 143 124       3.55170954       0.00300000       2.05170954
  2 143 125       3.29067223       0.00300000       1.79067223
  2 142 125       3.05027667       0.00300000       1.55027667
  2 142 126       2.58741034       0.00300000       1.08741034
  2 142 127       2.16236840       0.00300000       0.66236840
  2 141 127       1.92756100       0.00300000       0.42756100
  2 141 128       1.64057875       0.00300000       0.14057875
  2 141 129       1.17587443       0.00300000      -0.32412557
  2 141 130       0.69959211       0.00300000      -0.80040789
  2 141 131       0.43217298       0.00300000      -1.06782702
  2 140 131       0.25394920       0.00300000      -1.24605080
END period  1

