BEGIN options
  SAVE_FLOWS
END options

BEGIN dimensions
  MAXBOUND  173
END dimensions

BEGIN period  1
  2 114 2     167.52022721       0.01000000     166.02022721
  2 114 3     163.59002919       0.01000000     162.09002919
  2 113 5     153.21989615       0.01000000     151.71989615
  2 113 6     151.66328188       0.01000000     150.16328188
  2 113 7     150.11088299       0.01000000     148.61088299
  2 113 8     148.55905359       0.01000000     147.05905359
  2 113 9     147.11455546       0.01000000     145.61455546
  2 112 9     145.64646017       0.01000000     144.14646017
  2 111 9     144.03705777       0.01000000     142.53705777
  2 110 10     141.96386946       0.01000000     140.46386946
  2 110 11     140.85934141       0.01000000     139.35934141
  2 109 11     139.73913129       0.01000000     138.23913129
  2 109 12     138.59202855       0.01000000     137.09202855
  4 108 12     137.76818556       0.01000000     136.26818556
  4 108 13     136.34318339       0.01000000     134.84318339
  2 108 14     134.77234338       0.01000000     133.27234338
  2 108 15     133.18144980       0.01000000     131.68144980
  2 108 16     131.62400758       0.01000000     130.12400758
  2 107 16     130.72350153       0.01000000     129.22350153
  2 107 17     128.22610073       0.01000000     126.72610073
  2 106 17     126.60999897       0.01000000     125.10999897
  2 105 17     124.72875226       0.01000000     123.22875226
  2 105 18     124.13441352       0.01000000     122.63441352
  2 104 18     123.30909680       0.01000000     121.80909680
  2 104 19     122.52604675       0.01000000     121.02604675
  2 103 19     121.82301504       0.01000000     120.32301504
  2 103 20     120.97565065       0.01000000     119.47565065
  2 102 20     120.21428341       0.01000000     118.71428341
  2 102 21     118.15210379       0.01000000     116.65210379
  4 101 21     116.70103091       0.01000000     115.20103091
  2 101 22     113.51134868       0.01000000     112.01134868
  2 101 23     112.53882700       0.01000000     111.03882700
  2 101 24     111.56897378       0.01000000     110.06897378
  2 101 25     110.58539104       0.01000000     109.08539104
  2 101 26     108.15535299       0.01000000     106.65535299
  2 101 27     107.14803071       0.01000000     105.64803071
  2 100 27     106.28102547       0.01000000     104.78102547
  2 100 28     104.00000000       0.01000000     102.50000000
  2 100 29     102.64417346       0.01000000     101.14417346
  2 99 29      98.77507362       0.01000000      97.27507362
  2 99 30      97.92577795       0.01000000      96.42577795
  2 99 31      96.88494487       0.01000000      95.38494487
  2 99 32      96.06939558       0.01000000      94.56939558
  2 100 32      95.66556112       0.01000000      94.16556112
  2 100 33      95.25068191       0.01000000      93.75068191
  2 100 34      94.00000000       0.01000000      92.50000000
  2 100 35      94.00000000       0.01000000      92.50000000
  2 100 36      94.00000000       0.01000000      92.50000000
  2 101 36      94.00000000       0.01000000      92.50000000
  2 101 37      92.73587623       0.01000000      91.23587623
  2 101 38      89.00000000       0.01000000      87.50000000
  2 101 39      89.00000000       0.01000000      87.50000000
  2 102 39      89.00000000       0.01000000      87.50000000
  2 102 40      88.19248942       0.01000000      86.69248942
  2 102 41      86.54607181       0.01000000      85.04607181
  2 102 42      83.16154869       0.01000000      81.66154869
  2 102 43      81.68010651       0.01000000      80.18010651
  2 103 43      80.79623140       0.01000000      79.29623140
  2 103 44      79.00000000       0.01000000      77.50000000
  2 103 45      78.24986058       0.01000000      76.74986058
  2 103 46      77.36850293       0.01000000      75.86850293
  2 104 46      76.54784488       0.01000000      75.04784488
  2 104 47      75.20968957       0.01000000      73.70968957
  2 104 48      73.63694008       0.01000000      72.13694008
  2 105 48      72.81187727       0.01000000      71.31187727
  2 105 49      71.51788821       0.01000000      70.01788821
  2 105 50      68.16915869       0.01000000      66.66915869
  2 105 51      66.52252705       0.01000000      65.02252705
  2 105 52      64.00000000       0.01000000      62.50000000
  2 105 53      64.00000000       0.01000000      62.50000000
  2 105 54      64.00000000       0.01000000      62.50000000
  2 105 55      62.97743101       0.01000000      61.47743101
  2 105 56      60.87234089       0.01000000      59.37234089
  2 105 57      59.00000000       0.01000000      57.50000000
  2 106 57      59.00000000       0.01000000      57.50000000
  2 106 58      58.42423394       0.01000000      56.92423394
  2 106 59      57.44123661       0.01000000      55.94123661
  2 105 59      56.74992922       0.01000000      55.24992922
  2 105 60      55.81843458       0.01000000      54.31843458
  2 105 61      53.49808012       0.01000000      51.99808012
  2 105 62      52.48382186       0.01000000      50.98382186
  2 105 63      51.48484519       0.01000000      49.98484519
  2 105 64      50.65721247       0.01000000      49.15721247
  2 104 64      50.15956858       0.01000000      48.65956858
  2 104 65      49.00000000       0.01000000      47.50000000
  2 104 66      49.00000000       0.01000000      47.50000000
  2 104 67      49.00000000       0.01000000      47.50000000
  2 104 68      48.52926854       0.01000000      47.02926854
  2 103 68      47.70273719       0.01000000      46.20273719
  2 103 69      46.49588583       0.01000000      44.99588583
  2 103 70      44.00000000       0.01000000      42.50000000
  2 103 71      43.04958951       0.01000000      41.54958951
  2 103 72      39.59851689       0.01000000      38.09851689
  2 103 73      39.00000000       0.01000000      37.50000000
  2 102 73      39.00000000       0.01000000      37.50000000
  2 102 74      39.00000000       0.01000000      37.50000000
  2 101 74      39.00000000       0.01000000      37.50000000
  2 101 75      37.78670390       0.01000000      36.28670390
  2 101 76      34.00000000       0.01000000      32.50000000
  2 101 77      34.00000000       0.01000000      32.50000000
  2 101 78      34.00000000       0.01000000      32.50000000
  2 100 78      34.00000000       0.01000000      32.50000000
  2 100 79      32.73662466       0.01000000      31.23662466
  2 100 80      29.00000000       0.01000000      27.50000000
  2 100 81      29.00000000       0.01000000      27.50000000
  2 100 82      29.00000000       0.01000000      27.50000000
  2 100 83      29.00000000       0.01000000      27.50000000
  2 100 84      29.00000000       0.01000000      27.50000000
  2 99 84      29.00000000       0.01000000      27.50000000
  2 99 85      29.00000000       0.01000000      27.50000000
  2 99 86      29.00000000       0.01000000      27.50000000
  2 99 87      28.37220979       0.01000000      26.87220979
  2 99 88      27.67308422       0.01000000      26.17308422
  2 98 88      27.06351058       0.01000000      25.56351058
  2 98 89      25.91132043       0.01000000      24.41132043
  2 98 90      23.50542603       0.01000000      22.00542603
  2 98 91      22.87509327       0.01000000      21.37509327
  2 97 91      22.38229404       0.01000000      20.88229404
  2 97 92      21.53768681       0.01000000      20.03768681
  2 97 93      20.76857117       0.01000000      19.26857117
  2 96 93      20.23378027       0.01000000      18.73378027
  2 96 94      18.61941387       0.01000000      17.11941387
  2 96 95      17.87568325       0.01000000      16.37568325
  2 96 96      17.42729252       0.01000000      15.92729252
  2 95 96      17.05293523       0.01000000      15.55293523
  2 95 97      16.38263928       0.01000000      14.88263928
  2 95 98      15.72476616       0.01000000      14.22476616
  2 94 98      15.34915862       0.01000000      13.84915862
  2 94 99      14.88990267       0.01000000      13.38990267
  2 94 100      14.13919974       0.01000000      12.63919974
  2 94 101      13.43402103       0.01000000      11.93402103
  2 93 101      12.96641402       0.01000000      11.46641402
  2 93 102      12.90395408       0.01000000      11.40395408
  2 94 102      12.69946318       0.01000000      11.19946318
  2 94 103      12.35458551       0.01000000      10.85458551
  2 93 103      12.14934794       0.01000000      10.64934794
  2 94 104      11.90061321       0.01000000      10.40061321
  2 94 105      11.47885972       0.01000000       9.97885972
  2 94 106      11.06713125       0.01000000       9.56713125
  2 94 107      10.66500753       0.01000000       9.16500753
  2 94 108      10.26248979       0.01000000       8.76248979
  2 94 109       9.85901727       0.01000000       8.35901727
  2 94 110       9.45723296       0.01000000       7.95723296
  2 94 111       9.04949169       0.01000000       7.54949169
  2 94 112       8.78506113       0.01000000       7.28506113
  4 95 112       8.58394124       0.01000000       7.08394124
  2 95 113       8.32469274       0.01000000       6.82469274
  2 94 113       8.12326052       0.01000000       6.62326052
  2 94 114       7.82154065       0.01000000       6.32154065
  2 94 115       7.40269548       0.01000000       5.90269548
  2 94 116       6.98920192       0.01000000       5.48920192
  2 94 117       6.64095073       0.01000000       5.14095073
  2 95 117       6.37931377       0.01000000       4.87931377
  2 95 118       6.07235465       0.01000000       4.57235465
  2 96 118       5.82822265       0.01000000       4.32822265
  2 96 119       5.56256539       0.01000000       4.06256539
  2 96 120       5.33724861       0.01000000       3.83724861
  2 95 120       5.08184385       0.01000000       3.58184385
  2 95 121       4.78503434       0.01000000       3.28503434
  2 94 121       4.47630174       0.01000000       2.97630174
  2 94 122       4.02878229       0.01000000       2.52878229
  2 94 123       3.61568292       0.01000000       2.11568292
  2 94 124       3.24944459       0.01000000       1.74944459
  2 95 124       3.00999902       0.01000000       1.50999902
  2 95 125       2.69413929       0.01000000       1.19413929
  2 96 125       2.43956928       0.01000000       0.93956928
  2 96 126       2.19281589       0.01000000       0.69281589
  2 96 127       1.75656729       0.01000000       0.25656729
  2 95 127       1.52975091       0.01000000       0.02975091
  2 95 128       1.27870924       0.01000000      -0.22129076
  2 95 129       0.93326490       0.01000000      -0.56673510
  2 94 129       0.66653890       0.01000000      -0.83346110
  1 93 130       0.21044401       0.01000000      -1.28955599
END period  1

