BEGIN options
  SAVE_FLOWS
END options

BEGIN dimensions
  MAXBOUND  16
END dimensions

BEGIN period  1
  4 113 32     115.00000000
  4 114 33     115.00000000
  4 114 34     115.00000000
  4 115 35     115.00000000
  4 116 36     115.00000000
  4 117 37     115.00000000
  4 118 37     115.00000000
  4 119 37     115.00000000
  4 120 38     115.00000000
  4 120 41     115.00000000
  4 120 42     115.00000000
  4 121 39     115.00000000
  4 121 40     115.00000000
  4 121 43     115.00000000
  4 121 44     115.00000000
  4 122 45     115.00000000
END period  1

