BEGIN MODFLOW_GRID basegrid
  ROTATION_ANGLE = 0.0
  X_OFFSET = 660022.5
  Y_OFFSET = 6149977.5
  NLAY = 4
  NROW = 183
  NCOL = 150
  DELR = CONSTANT 300.0
  DELC = CONSTANT 300.0
  TOP = CONSTANT 1.0
  BOTTOM LAYER 1 = CONSTANT 0.0
  BOTTOM LAYER 2 = CONSTANT 0.0
  BOTTOM LAYER 3 = CONSTANT 0.0
  BOTTOM LAYER 4 = CONSTANT 0.0
END MODFLOW_GRID


BEGIN QUADTREE_BUILDER quadtreebuilder
  MODFLOW_GRID = basegrid
  SMOOTHING = full
  TOP LAYER 1 = REPLICATE basename
  TOP LAYER 2 = REPLICATE basename
  TOP LAYER 3 = REPLICATE basename
  TOP LAYER 4 = REPLICATE basename
  BOTTOM LAYER 1 = REPLICATE basename
  BOTTOM LAYER 2 = REPLICATE basename
  BOTTOM LAYER 3 = REPLICATE basename
  BOTTOM LAYER 4 = REPLICATE basename
  GRID_DEFINITION_FILE = quadtreegrid.dfn
END QUADTREE_BUILDER






