pcf
* control data
             restart      regularization
       167       322         3      3220         3         0
         8         2              single               point         1         0         0          noobsreref
   2.000000E+01  -3.000000E+00   3.000000E-01   1.000000E-02        -7       999          lamforgive        noderforgive
   1.000000E+01   1.000000E+01   1.000000E-03         0         0
   1.000000E-01         1   1.100000E+00               noaui          nosenreuse        noboundscale
         0   1.000000E-02         7         3   1.000000E-02         3   0.000000E+00         1  -1.000000E+00
         0         0         0         0             jcosave          verboserec          jcosaveitn          reisaveitn          parsaveitn        noparsaverun
* singular value decomposition
         1
  10000000    1.000000E-06
1
* parameter groups
 kp_inst:0               relative              1.0000000000E-02       0.0  switch                2.0000000000E+00       parabolic              1.0000000000E-05       5.0000000000E-01       smaller              
 irr__multiplier         relative              1.0000000000E-02       0.0  switch                2.0000000000E+00       parabolic              1.0000000000E-05       5.0000000000E-01       smaller              
 cond                    relative              1.0000000000E-02       0.0  switch                2.0000000000E+00       parabolic              1.0000000000E-05       5.0000000000E-01       smaller              
* parameter data
            kp_inst:0_i:4_j:139    log                    factor                1.0000000000E+02      5.0000000000E-02      1.0000000000E+02       kp_inst:0             1.0000000000E+00      0.0000000000E+00       1          
            kp_inst:0_i:13_j:139   log                    factor                1.0000000000E+02      5.0000000000E-02      1.0000000000E+02       kp_inst:0             1.0000000000E+00      0.0000000000E+00       1          
            kp_inst:0_i:22_j:130   log                    factor                6.4056027213E+01      5.0000000000E-02      1.0000000000E+02       kp_inst:0             1.0000000000E+00      0.0000000000E+00       1          
            kp_inst:0_i:22_j:139   log                    factor                4.9999999501E-02      5.0000000000E-02      1.0000000000E+02       kp_inst:0             1.0000000000E+00      0.0000000000E+00       1          
            kp_inst:0_i:31_j:121   log                    factor                1.0000000000E+02      5.0000000000E-02      1.0000000000E+02       kp_inst:0             1.0000000000E+00      0.0000000000E+00       1          
            kp_inst:0_i:31_j:130   log                    factor                4.9999999501E-02      5.0000000000E-02      1.0000000000E+02       kp_inst:0             1.0000000000E+00      0.0000000000E+00       1          
            kp_inst:0_i:31_j:139   log                    factor                1.8342055364E+00      5.0000000000E-02      1.0000000000E+02       kp_inst:0             1.0000000000E+00      0.0000000000E+00       1          
            kp_inst:0_i:40_j:112   log                    factor                4.9999999501E-02      5.0000000000E-02      1.0000000000E+02       kp_inst:0             1.0000000000E+00      0.0000000000E+00       1          
            kp_inst:0_i:40_j:121   log                    factor                4.9999999501E-02      5.0000000000E-02      1.0000000000E+02       kp_inst:0             1.0000000000E+00      0.0000000000E+00       1          
            kp_inst:0_i:40_j:130   log                    factor                4.9999999501E-02      5.0000000000E-02      1.0000000000E+02       kp_inst:0             1.0000000000E+00      0.0000000000E+00       1          
            kp_inst:0_i:40_j:139   log                    factor                4.4403376931E-01      5.0000000000E-02      1.0000000000E+02       kp_inst:0             1.0000000000E+00      0.0000000000E+00       1          
            kp_inst:0_i:49_j:103   log                    factor                6.8524046323E+00      5.0000000000E-02      1.0000000000E+02       kp_inst:0             1.0000000000E+00      0.0000000000E+00       1          
            kp_inst:0_i:49_j:112   log                    factor                1.0000000000E+02      5.0000000000E-02      1.0000000000E+02       kp_inst:0             1.0000000000E+00      0.0000000000E+00       1          
            kp_inst:0_i:49_j:121   log                    factor                1.0000000000E+02      5.0000000000E-02      1.0000000000E+02       kp_inst:0             1.0000000000E+00      0.0000000000E+00       1          
            kp_inst:0_i:49_j:130   log                    factor                1.0000000000E+02      5.0000000000E-02      1.0000000000E+02       kp_inst:0             1.0000000000E+00      0.0000000000E+00       1          
            kp_inst:0_i:49_j:139   log                    factor                4.9999999501E-02      5.0000000000E-02      1.0000000000E+02       kp_inst:0             1.0000000000E+00      0.0000000000E+00       1          
            kp_inst:0_i:58_j:76    log                    factor                1.0000000000E+02      5.0000000000E-02      1.0000000000E+02       kp_inst:0             1.0000000000E+00      0.0000000000E+00       1          
            kp_inst:0_i:58_j:85    log                    factor                2.9569977904E+00      5.0000000000E-02      1.0000000000E+02       kp_inst:0             1.0000000000E+00      0.0000000000E+00       1          
            kp_inst:0_i:58_j:94    log                    factor                1.4101002838E+01      5.0000000000E-02      1.0000000000E+02       kp_inst:0             1.0000000000E+00      0.0000000000E+00       1          
            kp_inst:0_i:58_j:103   log                    factor                3.2042028325E+01      5.0000000000E-02      1.0000000000E+02       kp_inst:0             1.0000000000E+00      0.0000000000E+00       1          
            kp_inst:0_i:58_j:112   log                    factor                1.0000000000E+02      5.0000000000E-02      1.0000000000E+02       kp_inst:0             1.0000000000E+00      0.0000000000E+00       1          
            kp_inst:0_i:58_j:121   log                    factor                4.9999999501E-02      5.0000000000E-02      1.0000000000E+02       kp_inst:0             1.0000000000E+00      0.0000000000E+00       1          
            kp_inst:0_i:58_j:130   log                    factor                8.1075568011E+01      5.0000000000E-02      1.0000000000E+02       kp_inst:0             1.0000000000E+00      0.0000000000E+00       1          
            kp_inst:0_i:58_j:139   log                    factor                1.0000000000E+02      5.0000000000E-02      1.0000000000E+02       kp_inst:0             1.0000000000E+00      0.0000000000E+00       1          
            kp_inst:0_i:67_j:76    log                    factor                1.0000000000E+02      5.0000000000E-02      1.0000000000E+02       kp_inst:0             1.0000000000E+00      0.0000000000E+00       1          
            kp_inst:0_i:67_j:85    log                    factor                1.7209569242E+01      5.0000000000E-02      1.0000000000E+02       kp_inst:0             1.0000000000E+00      0.0000000000E+00       1          
            kp_inst:0_i:67_j:94    log                    factor                6.1540355400E+01      5.0000000000E-02      1.0000000000E+02       kp_inst:0             1.0000000000E+00      0.0000000000E+00       1          
            kp_inst:0_i:67_j:103   log                    factor                7.2657424619E+01      5.0000000000E-02      1.0000000000E+02       kp_inst:0             1.0000000000E+00      0.0000000000E+00       1          
            kp_inst:0_i:67_j:112   log                    factor                1.0000000000E+02      5.0000000000E-02      1.0000000000E+02       kp_inst:0             1.0000000000E+00      0.0000000000E+00       1          
            kp_inst:0_i:67_j:121   log                    factor                1.0000000000E+02      5.0000000000E-02      1.0000000000E+02       kp_inst:0             1.0000000000E+00      0.0000000000E+00       1          
            kp_inst:0_i:67_j:130   log                    factor                1.0000000000E+02      5.0000000000E-02      1.0000000000E+02       kp_inst:0             1.0000000000E+00      0.0000000000E+00       1          
            kp_inst:0_i:67_j:139   log                    factor                1.0000000000E+02      5.0000000000E-02      1.0000000000E+02       kp_inst:0             1.0000000000E+00      0.0000000000E+00       1          
            kp_inst:0_i:76_j:76    log                    factor                1.1548085748E+01      5.0000000000E-02      1.0000000000E+02       kp_inst:0             1.0000000000E+00      0.0000000000E+00       1          
            kp_inst:0_i:76_j:85    log                    factor                5.4522027815E+00      5.0000000000E-02      1.0000000000E+02       kp_inst:0             1.0000000000E+00      0.0000000000E+00       1          
            kp_inst:0_i:76_j:94    log                    factor                2.5365883880E+01      5.0000000000E-02      1.0000000000E+02       kp_inst:0             1.0000000000E+00      0.0000000000E+00       1          
            kp_inst:0_i:76_j:103   log                    factor                8.9603959277E-01      5.0000000000E-02      1.0000000000E+02       kp_inst:0             1.0000000000E+00      0.0000000000E+00       1          
            kp_inst:0_i:76_j:112   log                    factor                1.0000000000E+02      5.0000000000E-02      1.0000000000E+02       kp_inst:0             1.0000000000E+00      0.0000000000E+00       1          
            kp_inst:0_i:76_j:121   log                    factor                4.9999999501E-02      5.0000000000E-02      1.0000000000E+02       kp_inst:0             1.0000000000E+00      0.0000000000E+00       1          
            kp_inst:0_i:76_j:130   log                    factor                1.0000000000E+02      5.0000000000E-02      1.0000000000E+02       kp_inst:0             1.0000000000E+00      0.0000000000E+00       1          
            kp_inst:0_i:76_j:139   log                    factor                4.9999999501E-02      5.0000000000E-02      1.0000000000E+02       kp_inst:0             1.0000000000E+00      0.0000000000E+00       1          
            kp_inst:0_i:85_j:67    log                    factor                9.7430627584E-01      5.0000000000E-02      1.0000000000E+02       kp_inst:0             1.0000000000E+00      0.0000000000E+00       1          
            kp_inst:0_i:85_j:76    log                    factor                1.5605942413E+01      5.0000000000E-02      1.0000000000E+02       kp_inst:0             1.0000000000E+00      0.0000000000E+00       1          
            kp_inst:0_i:85_j:85    log                    factor                1.1779314030E+01      5.0000000000E-02      1.0000000000E+02       kp_inst:0             1.0000000000E+00      0.0000000000E+00       1          
            kp_inst:0_i:85_j:94    log                    factor                2.1775092071E+01      5.0000000000E-02      1.0000000000E+02       kp_inst:0             1.0000000000E+00      0.0000000000E+00       1          
            kp_inst:0_i:85_j:103   log                    factor                1.9598823418E+01      5.0000000000E-02      1.0000000000E+02       kp_inst:0             1.0000000000E+00      0.0000000000E+00       1          
            kp_inst:0_i:85_j:112   log                    factor                4.0422204976E+01      5.0000000000E-02      1.0000000000E+02       kp_inst:0             1.0000000000E+00      0.0000000000E+00       1          
            kp_inst:0_i:85_j:121   log                    factor                1.0000000000E+02      5.0000000000E-02      1.0000000000E+02       kp_inst:0             1.0000000000E+00      0.0000000000E+00       1          
            kp_inst:0_i:85_j:130   log                    factor                1.0000000000E+02      5.0000000000E-02      1.0000000000E+02       kp_inst:0             1.0000000000E+00      0.0000000000E+00       1          
            kp_inst:0_i:85_j:139   log                    factor                6.5096554144E-01      5.0000000000E-02      1.0000000000E+02       kp_inst:0             1.0000000000E+00      0.0000000000E+00       1          
            kp_inst:0_i:94_j:40    log                    factor                2.1099492040E+00      5.0000000000E-02      1.0000000000E+02       kp_inst:0             1.0000000000E+00      0.0000000000E+00       1          
            kp_inst:0_i:94_j:49    log                    factor                3.4437451139E+00      5.0000000000E-02      1.0000000000E+02       kp_inst:0             1.0000000000E+00      0.0000000000E+00       1          
            kp_inst:0_i:94_j:58    log                    factor                1.0926976272E+01      5.0000000000E-02      1.0000000000E+02       kp_inst:0             1.0000000000E+00      0.0000000000E+00       1          
            kp_inst:0_i:94_j:67    log                    factor                3.4274410980E+01      5.0000000000E-02      1.0000000000E+02       kp_inst:0             1.0000000000E+00      0.0000000000E+00       1          
            kp_inst:0_i:94_j:76    log                    factor                6.5358939980E+00      5.0000000000E-02      1.0000000000E+02       kp_inst:0             1.0000000000E+00      0.0000000000E+00       1          
            kp_inst:0_i:94_j:85    log                    factor                5.3805540695E+00      5.0000000000E-02      1.0000000000E+02       kp_inst:0             1.0000000000E+00      0.0000000000E+00       1          
            kp_inst:0_i:94_j:94    log                    factor                3.3589767672E+00      5.0000000000E-02      1.0000000000E+02       kp_inst:0             1.0000000000E+00      0.0000000000E+00       1          
            kp_inst:0_i:94_j:103   log                    factor                1.0000000000E+02      5.0000000000E-02      1.0000000000E+02       kp_inst:0             1.0000000000E+00      0.0000000000E+00       1          
            kp_inst:0_i:94_j:112   log                    factor                1.0000000000E+02      5.0000000000E-02      1.0000000000E+02       kp_inst:0             1.0000000000E+00      0.0000000000E+00       1          
            kp_inst:0_i:94_j:121   log                    factor                1.0000000000E+02      5.0000000000E-02      1.0000000000E+02       kp_inst:0             1.0000000000E+00      0.0000000000E+00       1          
            kp_inst:0_i:94_j:130   log                    factor                4.9999999501E-02      5.0000000000E-02      1.0000000000E+02       kp_inst:0             1.0000000000E+00      0.0000000000E+00       1          
            kp_inst:0_i:94_j:139   log                    factor                4.9999999501E-02      5.0000000000E-02      1.0000000000E+02       kp_inst:0             1.0000000000E+00      0.0000000000E+00       1          
            kp_inst:0_i:103_j:22   log                    factor                6.3360704868E+01      5.0000000000E-02      1.0000000000E+02       kp_inst:0             1.0000000000E+00      0.0000000000E+00       1          
            kp_inst:0_i:103_j:31   log                    factor                2.8097650104E+01      5.0000000000E-02      1.0000000000E+02       kp_inst:0             1.0000000000E+00      0.0000000000E+00       1          
            kp_inst:0_i:103_j:40   log                    factor                4.2881009409E+00      5.0000000000E-02      1.0000000000E+02       kp_inst:0             1.0000000000E+00      0.0000000000E+00       1          
            kp_inst:0_i:103_j:49   log                    factor                8.5437198632E-01      5.0000000000E-02      1.0000000000E+02       kp_inst:0             1.0000000000E+00      0.0000000000E+00       1          
            kp_inst:0_i:103_j:58   log                    factor                1.3897606154E+01      5.0000000000E-02      1.0000000000E+02       kp_inst:0             1.0000000000E+00      0.0000000000E+00       1          
            kp_inst:0_i:103_j:67   log                    factor                3.1888566745E+00      5.0000000000E-02      1.0000000000E+02       kp_inst:0             1.0000000000E+00      0.0000000000E+00       1          
            kp_inst:0_i:103_j:76   log                    factor                2.5851217403E+00      5.0000000000E-02      1.0000000000E+02       kp_inst:0             1.0000000000E+00      0.0000000000E+00       1          
            kp_inst:0_i:103_j:85   log                    factor                1.2139964031E+00      5.0000000000E-02      1.0000000000E+02       kp_inst:0             1.0000000000E+00      0.0000000000E+00       1          
            kp_inst:0_i:103_j:94   log                    factor                1.0000000000E+02      5.0000000000E-02      1.0000000000E+02       kp_inst:0             1.0000000000E+00      0.0000000000E+00       1          
           kp_inst:0_i:103_j:103   log                    factor                1.0000000000E+02      5.0000000000E-02      1.0000000000E+02       kp_inst:0             1.0000000000E+00      0.0000000000E+00       1          
           kp_inst:0_i:103_j:112   log                    factor                4.0731462115E+01      5.0000000000E-02      1.0000000000E+02       kp_inst:0             1.0000000000E+00      0.0000000000E+00       1          
           kp_inst:0_i:103_j:121   log                    factor                5.0306024733E+01      5.0000000000E-02      1.0000000000E+02       kp_inst:0             1.0000000000E+00      0.0000000000E+00       1          
           kp_inst:0_i:103_j:130   log                    factor                1.0000000000E+02      5.0000000000E-02      1.0000000000E+02       kp_inst:0             1.0000000000E+00      0.0000000000E+00       1          
           kp_inst:0_i:103_j:139   log                    factor                1.0000000000E+02      5.0000000000E-02      1.0000000000E+02       kp_inst:0             1.0000000000E+00      0.0000000000E+00       1          
            kp_inst:0_i:112_j:13   log                    factor                2.8519177749E+00      5.0000000000E-02      1.0000000000E+02       kp_inst:0             1.0000000000E+00      0.0000000000E+00       1          
            kp_inst:0_i:112_j:22   log                    factor                2.8797646745E+00      5.0000000000E-02      1.0000000000E+02       kp_inst:0             1.0000000000E+00      0.0000000000E+00       1          
            kp_inst:0_i:112_j:31   log                    factor                7.2756198640E-01      5.0000000000E-02      1.0000000000E+02       kp_inst:0             1.0000000000E+00      0.0000000000E+00       1          
            kp_inst:0_i:112_j:40   log                    factor                1.0399680570E+01      5.0000000000E-02      1.0000000000E+02       kp_inst:0             1.0000000000E+00      0.0000000000E+00       1          
            kp_inst:0_i:112_j:49   log                    factor                3.8590463962E+01      5.0000000000E-02      1.0000000000E+02       kp_inst:0             1.0000000000E+00      0.0000000000E+00       1          
            kp_inst:0_i:112_j:58   log                    factor                1.0000000000E+02      5.0000000000E-02      1.0000000000E+02       kp_inst:0             1.0000000000E+00      0.0000000000E+00       1          
            kp_inst:0_i:112_j:67   log                    factor                5.1355859259E+01      5.0000000000E-02      1.0000000000E+02       kp_inst:0             1.0000000000E+00      0.0000000000E+00       1          
            kp_inst:0_i:112_j:76   log                    factor                2.0136778827E+01      5.0000000000E-02      1.0000000000E+02       kp_inst:0             1.0000000000E+00      0.0000000000E+00       1          
            kp_inst:0_i:112_j:85   log                    factor                6.5021951528E+01      5.0000000000E-02      1.0000000000E+02       kp_inst:0             1.0000000000E+00      0.0000000000E+00       1          
            kp_inst:0_i:112_j:94   log                    factor                6.2185624486E+01      5.0000000000E-02      1.0000000000E+02       kp_inst:0             1.0000000000E+00      0.0000000000E+00       1          
           kp_inst:0_i:112_j:103   log                    factor                1.2664586074E-01      5.0000000000E-02      1.0000000000E+02       kp_inst:0             1.0000000000E+00      0.0000000000E+00       1          
           kp_inst:0_i:112_j:112   log                    factor                2.8261030906E+00      5.0000000000E-02      1.0000000000E+02       kp_inst:0             1.0000000000E+00      0.0000000000E+00       1          
           kp_inst:0_i:112_j:121   log                    factor                4.3658217486E-01      5.0000000000E-02      1.0000000000E+02       kp_inst:0             1.0000000000E+00      0.0000000000E+00       1          
           kp_inst:0_i:112_j:130   log                    factor                1.0000000000E+02      5.0000000000E-02      1.0000000000E+02       kp_inst:0             1.0000000000E+00      0.0000000000E+00       1          
           kp_inst:0_i:112_j:139   log                    factor                4.9999999501E-02      5.0000000000E-02      1.0000000000E+02       kp_inst:0             1.0000000000E+00      0.0000000000E+00       1          
            kp_inst:0_i:121_j:49   log                    factor                2.6183035828E+01      5.0000000000E-02      1.0000000000E+02       kp_inst:0             1.0000000000E+00      0.0000000000E+00       1          
            kp_inst:0_i:121_j:58   log                    factor                8.9926356980E+00      5.0000000000E-02      1.0000000000E+02       kp_inst:0             1.0000000000E+00      0.0000000000E+00       1          
            kp_inst:0_i:121_j:67   log                    factor                4.2440451943E+01      5.0000000000E-02      1.0000000000E+02       kp_inst:0             1.0000000000E+00      0.0000000000E+00       1          
            kp_inst:0_i:121_j:76   log                    factor                3.9191329821E+01      5.0000000000E-02      1.0000000000E+02       kp_inst:0             1.0000000000E+00      0.0000000000E+00       1          
            kp_inst:0_i:121_j:85   log                    factor                1.1748434502E+01      5.0000000000E-02      1.0000000000E+02       kp_inst:0             1.0000000000E+00      0.0000000000E+00       1          
            kp_inst:0_i:121_j:94   log                    factor                2.8357699756E-01      5.0000000000E-02      1.0000000000E+02       kp_inst:0             1.0000000000E+00      0.0000000000E+00       1          
           kp_inst:0_i:121_j:103   log                    factor                1.0000000000E+02      5.0000000000E-02      1.0000000000E+02       kp_inst:0             1.0000000000E+00      0.0000000000E+00       1          
           kp_inst:0_i:121_j:112   log                    factor                1.8508618337E-01      5.0000000000E-02      1.0000000000E+02       kp_inst:0             1.0000000000E+00      0.0000000000E+00       1          
           kp_inst:0_i:121_j:121   log                    factor                4.9999999501E-02      5.0000000000E-02      1.0000000000E+02       kp_inst:0             1.0000000000E+00      0.0000000000E+00       1          
           kp_inst:0_i:121_j:130   log                    factor                1.0000000000E+02      5.0000000000E-02      1.0000000000E+02       kp_inst:0             1.0000000000E+00      0.0000000000E+00       1          
           kp_inst:0_i:121_j:139   log                    factor                1.0000000000E+02      5.0000000000E-02      1.0000000000E+02       kp_inst:0             1.0000000000E+00      0.0000000000E+00       1          
            kp_inst:0_i:130_j:49   log                    factor                1.4523657542E-01      5.0000000000E-02      1.0000000000E+02       kp_inst:0             1.0000000000E+00      0.0000000000E+00       1          
            kp_inst:0_i:130_j:58   log                    factor                3.1520275156E+01      5.0000000000E-02      1.0000000000E+02       kp_inst:0             1.0000000000E+00      0.0000000000E+00       1          
            kp_inst:0_i:130_j:67   log                    factor                1.4898652820E+00      5.0000000000E-02      1.0000000000E+02       kp_inst:0             1.0000000000E+00      0.0000000000E+00       1          
            kp_inst:0_i:130_j:76   log                    factor                7.7296530359E-02      5.0000000000E-02      1.0000000000E+02       kp_inst:0             1.0000000000E+00      0.0000000000E+00       1          
            kp_inst:0_i:130_j:85   log                    factor                3.0010276720E+01      5.0000000000E-02      1.0000000000E+02       kp_inst:0             1.0000000000E+00      0.0000000000E+00       1          
            kp_inst:0_i:130_j:94   log                    factor                1.0000000000E+02      5.0000000000E-02      1.0000000000E+02       kp_inst:0             1.0000000000E+00      0.0000000000E+00       1          
           kp_inst:0_i:130_j:103   log                    factor                1.0000000000E+02      5.0000000000E-02      1.0000000000E+02       kp_inst:0             1.0000000000E+00      0.0000000000E+00       1          
           kp_inst:0_i:130_j:112   log                    factor                1.0000000000E+02      5.0000000000E-02      1.0000000000E+02       kp_inst:0             1.0000000000E+00      0.0000000000E+00       1          
           kp_inst:0_i:130_j:121   log                    factor                1.0000000000E+02      5.0000000000E-02      1.0000000000E+02       kp_inst:0             1.0000000000E+00      0.0000000000E+00       1          
           kp_inst:0_i:130_j:130   log                    factor                1.0000000000E+02      5.0000000000E-02      1.0000000000E+02       kp_inst:0             1.0000000000E+00      0.0000000000E+00       1          
           kp_inst:0_i:130_j:139   log                    factor                5.3572017249E-01      5.0000000000E-02      1.0000000000E+02       kp_inst:0             1.0000000000E+00      0.0000000000E+00       1          
            kp_inst:0_i:139_j:49   log                    factor                5.3473547909E-01      5.0000000000E-02      1.0000000000E+02       kp_inst:0             1.0000000000E+00      0.0000000000E+00       1          
            kp_inst:0_i:139_j:58   log                    factor                1.6439325704E+00      5.0000000000E-02      1.0000000000E+02       kp_inst:0             1.0000000000E+00      0.0000000000E+00       1          
            kp_inst:0_i:139_j:67   log                    factor                4.9999999501E-02      5.0000000000E-02      1.0000000000E+02       kp_inst:0             1.0000000000E+00      0.0000000000E+00       1          
            kp_inst:0_i:139_j:76   log                    factor                1.0000000000E+02      5.0000000000E-02      1.0000000000E+02       kp_inst:0             1.0000000000E+00      0.0000000000E+00       1          
            kp_inst:0_i:139_j:85   log                    factor                5.6339371778E-01      5.0000000000E-02      1.0000000000E+02       kp_inst:0             1.0000000000E+00      0.0000000000E+00       1          
            kp_inst:0_i:139_j:94   log                    factor                2.3698998856E+00      5.0000000000E-02      1.0000000000E+02       kp_inst:0             1.0000000000E+00      0.0000000000E+00       1          
           kp_inst:0_i:139_j:103   log                    factor                2.4049164887E+01      5.0000000000E-02      1.0000000000E+02       kp_inst:0             1.0000000000E+00      0.0000000000E+00       1          
           kp_inst:0_i:139_j:112   log                    factor                3.1470380943E+00      5.0000000000E-02      1.0000000000E+02       kp_inst:0             1.0000000000E+00      0.0000000000E+00       1          
           kp_inst:0_i:139_j:121   log                    factor                1.4681519288E+00      5.0000000000E-02      1.0000000000E+02       kp_inst:0             1.0000000000E+00      0.0000000000E+00       1          
           kp_inst:0_i:139_j:130   log                    factor                1.0000000000E+02      5.0000000000E-02      1.0000000000E+02       kp_inst:0             1.0000000000E+00      0.0000000000E+00       1          
           kp_inst:0_i:139_j:139   log                    factor                1.0000000000E+02      5.0000000000E-02      1.0000000000E+02       kp_inst:0             1.0000000000E+00      0.0000000000E+00       1          
            kp_inst:0_i:148_j:58   log                    factor                6.7052503888E-01      5.0000000000E-02      1.0000000000E+02       kp_inst:0             1.0000000000E+00      0.0000000000E+00       1          
            kp_inst:0_i:148_j:67   log                    factor                1.0514434018E+00      5.0000000000E-02      1.0000000000E+02       kp_inst:0             1.0000000000E+00      0.0000000000E+00       1          