BEGIN options
  SAVE_FLOWS
END options

BEGIN dimensions
  MAXBOUND  86
END dimensions

BEGIN period  1
  1 69 73      25.60000000   1.0000000000e-03   23.60000000
  1 69 74      25.13184836   1.0000000000e-03   23.13184836
  1 69 75      24.62000000   1.0000000000e-03   22.62000000
  1 70 75      22.40942986   1.0000000000e-03   20.40942986
  1 70 76      20.37000000   1.0000000000e-03   18.37000000
  1 71 76      20.19417009   1.0000000000e-03   18.19417009
  1 72 76      20.07468719   1.0000000000e-03   18.07468719
  1 72 77      19.97200214   1.0000000000e-03   17.97200214
  1 73 77      19.86270343   1.0000000000e-03   17.86270343
  1 73 78      19.74464020   1.0000000000e-03   17.74464020
  1 73 79      19.66099762   1.0000000000e-03   17.66099762
  1 72 79      19.56856205   1.0000000000e-03   17.56856205
  1 72 80      19.40688763   1.0000000000e-03   17.40688763
  1 71 80      19.30916071   1.0000000000e-03   17.30916071
  1 71 81      19.20000000   1.0000000000e-03   17.20000000
  1 71 82      19.01550524   1.0000000000e-03   17.01550524
  1 72 82      18.89751564   1.0000000000e-03   16.89751564
  1 72 83      18.75615061   1.0000000000e-03   16.75615061
  1 73 83      18.60844022   1.0000000000e-03   16.60844022
  1 73 84      18.45662918   1.0000000000e-03   16.45662918
  1 72 84      18.34752214   1.0000000000e-03   16.34752214
  1 72 85      18.22570205   1.0000000000e-03   16.22570205
  1 72 86      18.00000000   1.0000000000e-03   16.00000000
  1 72 87      17.36334309   1.0000000000e-03   15.36334309
  1 72 88      16.72645036   1.0000000000e-03   14.72645036
  1 72 89      16.08867313   1.0000000000e-03   14.08867313
  1 72 90      15.45879481   1.0000000000e-03   13.45879481
  1 72 91      14.83066660   1.0000000000e-03   12.83066660
  1 72 92      14.35040858   1.0000000000e-03   12.35040858
  1 73 92      14.00000000   1.0000000000e-03   12.00000000
  1 73 93      13.18697347   1.0000000000e-03   11.18697347
  1 73 94      12.34100773   1.0000000000e-03   10.34100773
  1 74 94      11.63000000   1.0000000000e-03    9.63000000
  1 74 95      11.42213745   1.0000000000e-03    9.42213745
  1 75 95      11.26655586   1.0000000000e-03    9.26655586
  1 75 94      11.08414506   1.0000000000e-03    9.08414506
  1 76 94      10.96618866   1.0000000000e-03    8.96618866
  1 76 95      10.70228804   1.0000000000e-03    8.70228804
  1 76 96      10.45030147   1.0000000000e-03    8.45030147
  1 77 96      10.26386876   1.0000000000e-03    8.26386876
  1 77 97       9.91038714   1.0000000000e-03    7.91038714
  1 77 98       9.53666458   1.0000000000e-03    7.53666458
  1 77 99       9.16510717   1.0000000000e-03    7.16510717
  1 77 100       8.80000000   1.0000000000e-03    6.80000000
  1 77 101       8.53185193   1.0000000000e-03    6.53185193
  1 78 101       8.24626416   1.0000000000e-03    6.24626416
  1 78 102       7.98206670   1.0000000000e-03    5.98206670
  1 79 102       7.70292619   1.0000000000e-03    5.70292619
  1 79 103       7.35438191   1.0000000000e-03    5.35438191
  1 80 103       7.13934847   1.0000000000e-03    5.13934847
  1 80 104       6.82301221   1.0000000000e-03    4.82301221
  1 80 105       6.40746456   1.0000000000e-03    4.40746456
  1 80 106       6.00000000   1.0000000000e-03    4.00000000
  1 80 107       5.61644206   1.0000000000e-03    3.61644206
  1 80 108       5.22387440   1.0000000000e-03    3.22387440
  1 80 109       4.96441691   1.0000000000e-03    2.96441691
  1 79 109       4.69675423   1.0000000000e-03    2.69675423
  1 79 110       4.38000000   1.0000000000e-03    2.38000000
  1 78 110       4.18608434   1.0000000000e-03    2.18608434
  1 78 111       3.89130893   1.0000000000e-03    1.89130893
  1 78 112       3.69783749   1.0000000000e-03    1.69783749
  1 77 112       3.51020944   1.0000000000e-03    1.51020944
  1 77 113       3.17901700   1.0000000000e-03    1.17901700
  1 76 113       2.99379881   1.0000000000e-03    0.99379881
  1 76 114       2.76943601   1.0000000000e-03    0.76943601
  1 76 115       2.41767692   1.0000000000e-03    0.41767692
  1 76 116       2.17045438   1.0000000000e-03    0.17045438
  1 75 116       2.00378449   1.0000000000e-03    0.00378449
  1 75 117       1.74845398   1.0000000000e-03   -0.25154602
  1 75 118       1.40954421   1.0000000000e-03   -0.59045579
  1 75 119       1.09000000   1.0000000000e-03   -0.91000000
  1 74 119       1.04463112   1.0000000000e-03   -0.95536888
  1 74 120       0.99335994   1.0000000000e-03   -1.00664006
  1 74 121       0.90110056   1.0000000000e-03   -1.09889944
  1 74 122       0.83211018   1.0000000000e-03   -1.16788982
  1 73 122       0.78670227   1.0000000000e-03   -1.21329773
  1 73 123       0.71919446   1.0000000000e-03   -1.28080554
  1 73 124       0.63205158   1.0000000000e-03   -1.36794842
  1 73 125       0.54596037   1.0000000000e-03   -1.45403963
  1 73 126       0.46591116   1.0000000000e-03   -1.53408884
  1 72 126       0.40209047   1.0000000000e-03   -1.59790953
  1 72 127       0.35050686   1.0000000000e-03   -1.64949314
  1 71 127       0.27776848   1.0000000000e-03   -1.72223152
  1 71 128       0.22222786   1.0000000000e-03   -1.77777214
  1 70 128       0.17327348   1.0000000000e-03   -1.82672652
  1 70 129       0.10000000   1.0000000000e-03   -1.90000000
END period  1


