pcf
* control data
             restart      regularization
       303       522         7       298        11         0
        12         4              single               point         1         0         0          noobsreref
   2.000000E+01  -3.000000E+00   3.000000E-01   1.000000E-02        -7       999          lamforgive        noderforgive
   1.000000E+01   1.000000E+01   1.000000E-03         0         0
   1.000000E-01         1   1.100000E+00               noaui          nosenreuse        noboundscale
        -1   1.000000E-02         3         3   1.000000E-02         3   0.000000E+00         1  -1.000000E+00
         0         0         0         0             jcosave          verboserec          jcosaveitn          reisaveitn          parsaveitn        noparsaverun
* singular value decomposition
         1
  10000000    1.000000E-06
1
* parameter groups
 kp_pc_inst:0            relative              1.0000000000E-02       0.0  switch                2.0000000000E+00       parabolic             1.0000000000E-05      5.0000000000E-01       smaller              
 kp_q_inst:0             relative              1.0000000000E-02       0.0  switch                2.0000000000E+00       parabolic             1.0000000000E-05      5.0000000000E-01       smaller              
 irr__multiplier         relative              1.0000000000E-02       0.0  switch                2.0000000000E+00       parabolic             1.0000000000E-05      5.0000000000E-01       smaller              
 cond                    relative              1.0000000000E-02       0.0  switch                2.0000000000E+00       parabolic             1.0000000000E-05      5.0000000000E-01       smaller              
 ep__multiplier          relative              1.0000000000E-02       0.0  switch                2.0000000000E+00       parabolic             1.0000000000E-05      5.0000000000E-01       smaller              
 qm__multiplier          relative              1.0000000000E-02       0.0  switch                2.0000000000E+00       parabolic             1.0000000000E-05      5.0000000000E-01       smaller              
 pms__multiplier         relative              1.0000000000E-02       0.0  switch                2.0000000000E+00       parabolic             1.0000000000E-05      5.0000000000E-01       smaller              
* parameter data
          kp_q_inst:0_i:28_j:124   log                    factor                1.0000000000E+00      5.0000000000E-03      3.0000000000E+00       kp_q_inst:0           1.0000000000E+00      0.0000000000E+00      1          
          kp_q_inst:0_i:28_j:132   log                    factor                1.0000000000E+00      5.0000000000E-03      3.0000000000E+00       kp_q_inst:0           1.0000000000E+00      0.0000000000E+00      1          
          kp_q_inst:0_i:36_j:116   log                    factor                1.0000000000E+00      5.0000000000E-03      3.0000000000E+00       kp_q_inst:0           1.0000000000E+00      0.0000000000E+00      1          
          kp_q_inst:0_i:36_j:124   log                    factor                1.0000000000E+00      5.0000000000E-03      3.0000000000E+00       kp_q_inst:0           1.0000000000E+00      0.0000000000E+00      1          
          kp_q_inst:0_i:36_j:132   log                    factor                1.0000000000E+00      5.0000000000E-03      3.0000000000E+00       kp_q_inst:0           1.0000000000E+00      0.0000000000E+00      1          
          kp_q_inst:0_i:44_j:100   log                    factor                1.0000000000E+00      5.0000000000E-03      3.0000000000E+00       kp_q_inst:0           1.0000000000E+00      0.0000000000E+00      1          
          kp_q_inst:0_i:44_j:108   log                    factor                1.0000000000E+00      5.0000000000E-03      3.0000000000E+00       kp_q_inst:0           1.0000000000E+00      0.0000000000E+00      1          
          kp_q_inst:0_i:44_j:116   log                    factor                1.0000000000E+00      5.0000000000E-03      3.0000000000E+00       kp_q_inst:0           1.0000000000E+00      0.0000000000E+00      1          
          kp_q_inst:0_i:44_j:124   log                    factor                1.0000000000E+00      5.0000000000E-03      3.0000000000E+00       kp_q_inst:0           1.0000000000E+00      0.0000000000E+00      1          
          kp_q_inst:0_i:44_j:132   log                    factor                1.0000000000E+00      5.0000000000E-03      3.0000000000E+00       kp_q_inst:0           1.0000000000E+00      0.0000000000E+00      1          
           kp_q_inst:0_i:52_j:92   log                    factor                1.0000000000E+00      5.0000000000E-03      3.0000000000E+00       kp_q_inst:0           1.0000000000E+00      0.0000000000E+00      1          
          kp_q_inst:0_i:52_j:100   log                    factor                1.0000000000E+00      5.0000000000E-03      3.0000000000E+00       kp_q_inst:0           1.0000000000E+00      0.0000000000E+00      1          
          kp_q_inst:0_i:52_j:108   log                    factor                1.0000000000E+00      5.0000000000E-03      3.0000000000E+00       kp_q_inst:0           1.0000000000E+00      0.0000000000E+00      1          
          kp_q_inst:0_i:52_j:116   log                    factor                1.0000000000E+00      5.0000000000E-03      3.0000000000E+00       kp_q_inst:0           1.0000000000E+00      0.0000000000E+00      1          
          kp_q_inst:0_i:52_j:124   log                    factor                1.0000000000E+00      5.0000000000E-03      3.0000000000E+00       kp_q_inst:0           1.0000000000E+00      0.0000000000E+00      1          
          kp_q_inst:0_i:52_j:132   log                    factor                1.0000000000E+00      5.0000000000E-03      3.0000000000E+00       kp_q_inst:0           1.0000000000E+00      0.0000000000E+00      1          
           kp_q_inst:0_i:60_j:76   log                    factor                1.0000000000E+00      5.0000000000E-03      3.0000000000E+00       kp_q_inst:0           1.0000000000E+00      0.0000000000E+00      1          
           kp_q_inst:0_i:60_j:84   log                    factor                1.0000000000E+00      5.0000000000E-03      3.0000000000E+00       kp_q_inst:0           1.0000000000E+00      0.0000000000E+00      1          
           kp_q_inst:0_i:60_j:92   log                    factor                1.0000000000E+00      5.0000000000E-03      3.0000000000E+00       kp_q_inst:0           1.0000000000E+00      0.0000000000E+00      1          
          kp_q_inst:0_i:60_j:100   log                    factor                1.0000000000E+00      5.0000000000E-03      3.0000000000E+00       kp_q_inst:0           1.0000000000E+00      0.0000000000E+00      1          
          kp_q_inst:0_i:60_j:108   log                    factor                1.0000000000E+00      5.0000000000E-03      3.0000000000E+00       kp_q_inst:0           1.0000000000E+00      0.0000000000E+00      1          
          kp_q_inst:0_i:60_j:116   log                    factor                1.0000000000E+00      5.0000000000E-03      3.0000000000E+00       kp_q_inst:0           1.0000000000E+00      0.0000000000E+00      1          
          kp_q_inst:0_i:60_j:124   log                    factor                1.0000000000E+00      5.0000000000E-03      3.0000000000E+00       kp_q_inst:0           1.0000000000E+00      0.0000000000E+00      1          
          kp_q_inst:0_i:60_j:132   log                    factor                1.0000000000E+00      5.0000000000E-03      3.0000000000E+00       kp_q_inst:0           1.0000000000E+00      0.0000000000E+00      1          
           kp_q_inst:0_i:68_j:76   log                    factor                1.0000000000E+00      5.0000000000E-03      3.0000000000E+00       kp_q_inst:0           1.0000000000E+00      0.0000000000E+00      1          
           kp_q_inst:0_i:68_j:84   log                    factor                1.0000000000E+00      5.0000000000E-03      3.0000000000E+00       kp_q_inst:0           1.0000000000E+00      0.0000000000E+00      1          
           kp_q_inst:0_i:68_j:92   log                    factor                1.0000000000E+00      5.0000000000E-03      3.0000000000E+00       kp_q_inst:0           1.0000000000E+00      0.0000000000E+00      1          
          kp_q_inst:0_i:68_j:100   log                    factor                1.0000000000E+00      5.0000000000E-03      3.0000000000E+00       kp_q_inst:0           1.0000000000E+00      0.0000000000E+00      1          
          kp_q_inst:0_i:68_j:108   log                    factor                1.0000000000E+00      5.0000000000E-03      3.0000000000E+00       kp_q_inst:0           1.0000000000E+00      0.0000000000E+00      1          
          kp_q_inst:0_i:68_j:116   log                    factor                1.0000000000E+00      5.0000000000E-03      3.0000000000E+00       kp_q_inst:0           1.0000000000E+00      0.0000000000E+00      1          
          kp_q_inst:0_i:68_j:124   log                    factor                1.0000000000E+00      5.0000000000E-03      3.0000000000E+00       kp_q_inst:0           1.0000000000E+00      0.0000000000E+00      1          
          kp_q_inst:0_i:68_j:132   log                    factor                1.0000000000E+00      5.0000000000E-03      3.0000000000E+00       kp_q_inst:0           1.0000000000E+00      0.0000000000E+00      1          
           kp_q_inst:0_i:76_j:92   log                    factor                1.0000000000E+00      5.0000000000E-03      3.0000000000E+00       kp_q_inst:0           1.0000000000E+00      0.0000000000E+00      1          
          kp_q_inst:0_i:76_j:100   log                    factor                1.0000000000E+00      5.0000000000E-03      3.0000000000E+00       kp_q_inst:0           1.0000000000E+00      0.0000000000E+00      1          
          kp_q_inst:0_i:76_j:108   log                    factor                1.0000000000E+00      5.0000000000E-03      3.0000000000E+00       kp_q_inst:0           1.0000000000E+00      0.0000000000E+00      1          
          kp_q_inst:0_i:76_j:116   log                    factor                1.0000000000E+00      5.0000000000E-03      3.0000000000E+00       kp_q_inst:0           1.0000000000E+00      0.0000000000E+00      1          
          kp_q_inst:0_i:76_j:124   log                    factor                1.0000000000E+00      5.0000000000E-03      3.0000000000E+00       kp_q_inst:0           1.0000000000E+00      0.0000000000E+00      1          
          kp_q_inst:0_i:76_j:132   log                    factor                1.0000000000E+00      5.0000000000E-03      3.0000000000E+00       kp_q_inst:0           1.0000000000E+00      0.0000000000E+00      1          
           kp_q_inst:0_i:84_j:92   log                    factor                1.0000000000E+00      5.0000000000E-03      3.0000000000E+00       kp_q_inst:0           1.0000000000E+00      0.0000000000E+00      1          
          kp_q_inst:0_i:84_j:100   log                    factor                1.0000000000E+00      5.0000000000E-03      3.0000000000E+00       kp_q_inst:0           1.0000000000E+00      0.0000000000E+00      1          
          kp_q_inst:0_i:84_j:108   log                    factor                1.0000000000E+00      5.0000000000E-03      3.0000000000E+00       kp_q_inst:0           1.0000000000E+00      0.0000000000E+00      1          
          kp_q_inst:0_i:84_j:116   log                    factor                1.0000000000E+00      5.0000000000E-03      3.0000000000E+00       kp_q_inst:0           1.0000000000E+00      0.0000000000E+00      1          
          kp_q_inst:0_i:84_j:124   log                    factor                1.0000000000E+00      5.0000000000E-03      3.0000000000E+00       kp_q_inst:0           1.0000000000E+00      0.0000000000E+00      1          
          kp_q_inst:0_i:84_j:132   log                    factor                1.0000000000E+00      5.0000000000E-03      3.0000000000E+00       kp_q_inst:0           1.0000000000E+00      0.0000000000E+00      1          
           kp_q_inst:0_i:92_j:84   log                    factor                1.0000000000E+00      5.0000000000E-03      3.0000000000E+00       kp_q_inst:0           1.0000000000E+00      0.0000000000E+00      1          
           kp_q_inst:0_i:92_j:92   log                    factor                1.0000000000E+00      5.0000000000E-03      3.0000000000E+00       kp_q_inst:0           1.0000000000E+00      0.0000000000E+00      1          
          kp_q_inst:0_i:92_j:100   log                    factor                1.0000000000E+00      5.0000000000E-03      3.0000000000E+00       kp_q_inst:0           1.0000000000E+00      0.0000000000E+00      1          
          kp_q_inst:0_i:92_j:108   log                    factor                1.0000000000E+00      5.0000000000E-03      3.0000000000E+00       kp_q_inst:0           1.0000000000E+00      0.0000000000E+00      1          
          kp_q_inst:0_i:92_j:116   log                    factor                1.0000000000E+00      5.0000000000E-03      3.0000000000E+00       kp_q_inst:0           1.0000000000E+00      0.0000000000E+00      1          
          kp_q_inst:0_i:92_j:124   log                    factor                1.0000000000E+00      5.0000000000E-03      3.0000000000E+00       kp_q_inst:0           1.0000000000E+00      0.0000000000E+00      1          
          kp_q_inst:0_i:92_j:132   log                    factor                1.0000000000E+00      5.0000000000E-03      3.0000000000E+00       kp_q_inst:0           1.0000000000E+00      0.0000000000E+00      1          
          kp_q_inst:0_i:100_j:28   log                    factor                1.0000000000E+00      5.0000000000E-03      3.0000000000E+00       kp_q_inst:0           1.0000000000E+00      0.0000000000E+00      1          
          kp_q_inst:0_i:100_j:36   log                    factor                1.0000000000E+00      5.0000000000E-03      3.0000000000E+00       kp_q_inst:0           1.0000000000E+00      0.0000000000E+00      1          
          kp_q_inst:0_i:100_j:44   log                    factor                1.0000000000E+00      5.0000000000E-03      3.0000000000E+00       kp_q_inst:0           1.0000000000E+00      0.0000000000E+00      1          
          kp_q_inst:0_i:100_j:52   log                    factor                1.0000000000E+00      5.0000000000E-03      3.0000000000E+00       kp_q_inst:0           1.0000000000E+00      0.0000000000E+00      1          
          kp_q_inst:0_i:100_j:60   log                    factor                1.0000000000E+00      5.0000000000E-03      3.0000000000E+00       kp_q_inst:0           1.0000000000E+00      0.0000000000E+00      1          
          kp_q_inst:0_i:100_j:68   log                    factor                1.0000000000E+00      5.0000000000E-03      3.0000000000E+00       kp_q_inst:0           1.0000000000E+00      0.0000000000E+00      1          
          kp_q_inst:0_i:100_j:76   log                    factor                3.7750000000E-01      5.0000000000E-03      3.0000000000E+00       kp_q_inst:0           1.0000000000E+00      0.0000000000E+00      1          
          kp_q_inst:0_i:100_j:84   log                    factor                3.7750000000E-01      5.0000000000E-03      3.0000000000E+00       kp_q_inst:0           1.0000000000E+00      0.0000000000E+00      1          
         kp_q_inst:0_i:100_j:124   log                    factor                1.0000000000E+00      5.0000000000E-03      3.0000000000E+00       kp_q_inst:0           1.0000000000E+00      0.0000000000E+00      1          
         kp_q_inst:0_i:100_j:132   log                    factor                1.0000000000E+00      5.0000000000E-03      3.0000000000E+00       kp_q_inst:0           1.0000000000E+00      0.0000000000E+00      1          
          kp_q_inst:0_i:108_j:12   log                    factor                1.0000000000E+00      5.0000000000E-03      3.0000000000E+00       kp_q_inst:0           1.0000000000E+00      0.0000000000E+00      1          
          kp_q_inst:0_i:108_j:20   log                    factor                1.0000000000E+00      5.0000000000E-03      3.0000000000E+00       kp_q_inst:0           1.0000000000E+00      0.0000000000E+00      1          
          kp_q_inst:0_i:108_j:28   log                    factor                3.7750000000E-01      5.0000000000E-03      3.0000000000E+00       kp_q_inst:0           1.0000000000E+00      0.0000000000E+00      1          
          kp_q_inst:0_i:108_j:36   log                    factor                3.7750000000E-01      5.0000000000E-03      3.0000000000E+00       kp_q_inst:0           1.0000000000E+00      0.0000000000E+00      1          
          kp_q_inst:0_i:108_j:44   log                    factor                3.7750000000E-01      5.0000000000E-03      3.0000000000E+00       kp_q_inst:0           1.0000000000E+00      0.0000000000E+00      1          
          kp_q_inst:0_i:108_j:52   log                    factor                3.7750000000E-01      5.0000000000E-03      3.0000000000E+00       kp_q_inst:0           1.0000000000E+00      0.0000000000E+00      1          
          kp_q_inst:0_i:108_j:60   log                    factor                3.7750000000E-01      5.0000000000E-03      3.0000000000E+00       kp_q_inst:0           1.0000000000E+00      0.0000000000E+00      1          
          kp_q_inst:0_i:108_j:68   log                    factor                3.7750000000E-01      5.0000000000E-03      3.0000000000E+00       kp_q_inst:0           1.0000000000E+00      0.0000000000E+00      1          
          kp_q_inst:0_i:108_j:76   log                    factor                3.7750000000E-01      5.0000000000E-03      3.0000000000E+00       kp_q_inst:0           1.0000000000E+00      0.0000000000E+00      1          
         kp_q_inst:0_i:108_j:116   log                    factor                1.0000000000E+00      5.0000000000E-03      3.0000000000E+00       kp_q_inst:0           1.0000000000E+00      0.0000000000E+00      1          
         kp_q_inst:0_i:108_j:124   log                    factor                1.0000000000E+00      5.0000000000E-03      3.0000000000E+00       kp_q_inst:0           1.0000000000E+00      0.0000000000E+00      1          
         kp_q_inst:0_i:108_j:132   log                    factor                1.0000000000E+00      5.0000000000E-03      3.0000000000E+00       kp_q_inst:0           1.0000000000E+00      0.0000000000E+00      1          
           kp_q_inst:0_i:116_j:4   log                    factor                1.0000000000E+00      5.0000000000E-03      3.0000000000E+00       kp_q_inst:0           1.0000000000E+00      0.0000000000E+00      1          
          kp_q_inst:0_i:116_j:36   log                    factor                3.7750000000E-01      5.0000000000E-03      3.0000000000E+00       kp_q_inst:0           1.0000000000E+00      0.0000000000E+00      1          
          kp_q_inst:0_i:116_j:44   log                    factor                3.7750000000E-01      5.0000000000E-03      3.0000000000E+00       kp_q_inst:0           1.0000000000E+00      0.0000000000E+00      1          
          kp_q_inst:0_i:116_j:52   log                    factor                3.7750000000E-01      5.0000000000E-03      3.0000000000E+00       kp_q_inst:0           1.0000000000E+00      0.0000000000E+00      1          
          kp_q_inst:0_i:116_j:60   log                    factor                3.7750000000E-01      5.0000000000E-03      3.0000000000E+00       kp_q_inst:0           1.0000000000E+00      0.0000000000E+00      1          
          kp_q_inst:0_i:116_j:68   log                    factor                3.7750000000E-01      5.0000000000E-03      3.0000000000E+00       kp_q_inst:0           1.0000000000E+00      0.0000000000E+00      1          
          kp_q_inst:0_i:116_j:92   log                    factor                5.9500000000E-03      5.0000000000E-03      3.0000000000E+00       kp_q_inst:0           1.0000000000E+00      0.0000000000E+00      1          
         kp_q_inst:0_i:116_j:100   log                    factor                5.9500000000E-03      5.0000000000E-03      3.0000000000E+00       kp_q_inst:0           1.0000000000E+00      0.0000000000E+00      1          
         kp_q_inst:0_i:116_j:108   log                    factor                5.9500000000E-03      5.0000000000E-03      3.0000000000E+00       kp_q_inst:0           1.0000000000E+00      0.0000000000E+00      1          
         kp_q_inst:0_i:116_j:116   log                    factor                5.9500000000E-03      5.0000000000E-03      3.0000000000E+00       kp_q_inst:0           1.0000000000E+00      0.0000000000E+00      1          
         kp_q_inst:0_i:116_j:124   log                    factor                1.0000000000E+00      5.0000000000E-03      3.0000000000E+00       kp_q_inst:0           1.0000000000E+00      0.0000000000E+00      1          
         kp_q_inst:0_i:116_j:132   log                    factor                1.0000000000E+00      5.0000000000E-03      3.0000000000E+00       kp_q_inst:0           1.0000000000E+00      0.0000000000E+00      1          
          kp_q_inst:0_i:124_j:52   log                    factor                3.7750000000E-01      5.0000000000E-03      3.0000000000E+00       kp_q_inst:0           1.0000000000E+00      0.0000000000E+00      1          
          kp_q_inst:0_i:124_j:60   log                    factor                3.7750000000E-01      5.0000000000E-03      3.0000000000E+00       kp_q_inst:0           1.0000000000E+00      0.0000000000E+00      1          
          kp_q_inst:0_i:124_j:84   log                    factor                5.9500000000E-03      5.0000000000E-03      3.0000000000E+00       kp_q_inst:0           1.0000000000E+00      0.0000000000E+00      1          
         kp_q_inst:0_i:124_j:100   log                    factor                5.9500000000E-03      5.0000000000E-03      3.0000000000E+00       kp_q_inst:0           1.0000000000E+00      0.0000000000E+00      1          
         kp_q_inst:0_i:124_j:108   log                    factor                5.9500000000E-03      5.0000000000E-03      3.0000000000E+00       kp_q_inst:0           1.0000000000E+00      0.0000000000E+00      1          
         kp_q_inst:0_i:124_j:116   log                    factor                5.9500000000E-03      5.0000000000E-03      3.0000000000E+00       kp_q_inst:0           1.0000000000E+00      0.0000000000E+00      1          
         kp_q_inst:0_i:124_j:124   log                    factor                1.0000000000E+00      5.0000000000E-03      3.0000000000E+00       kp_q_inst:0           1.0000000000E+00      0.0000000000E+00      1          
         kp_q_inst:0_i:124_j:132   log                    factor                1.0000000000E+00      5.0000000000E-03      3.0000000000E+00       kp_q_inst:0           1.0000000000E+00      0.0000000000E+00      1          
         kp_q_inst:0_i:132_j:108   log                    factor                5.9500000000E-03      5.0000000000E-03      3.0000000000E+00       kp_q_inst:0           1.0000000000E+00      0.0000000000E+00      1          
         kp_q_inst:0_i:132_j:124   log                    factor                1.0000000000E+00      5.0000000000E-03      3.0000000000E+00       kp_q_inst:0           1.0000000000E+00      0.0000000000E+00      1          
         kp_q_inst:0_i:132_j:132   log                    factor                1.0000000000E+00      5.0000000000E-03      3.0000000000E+00       kp_q_inst:0           1.0000000000E+00      0.0000000000E+00      1          
         kp_q_inst:0_i:140_j:108   log                    factor                5.9500000000E-03      5.0000000000E-03      3.0000000000E+00       kp_q_inst:0           1.0000000000E+00      0.0000000000E+00      1          
         kp_q_inst:0_i:140_j:116   log                    factor                5.9500000000E-03      5.0000000000E-03      3.0000000000E+00       kp_q_inst:0           1.0000000000E+00      0.0000000000E+00      1          
         kp_q_inst:0_i:140_j:124   log                    factor                1.0000000000E+00      5.0000000000E-03      3.0000000000E+00       kp_q_inst:0           1.0000000000E+00      0.0000000000E+00      1          
         kp_q_inst:0_i:140_j:132   log                    factor                1.0000000000E+00      5.0000000000E-03      3.0000000000E+00       kp_q_inst:0           1.0000000000E+00      0.0000000000E+00      1          
          kp_q_inst:0_i:148_j:92   log                    factor                1.0000000000E+00      5.0000000000E-03      3.0000000000E+00       kp_q_inst:0           1.0000000000E+00      0.0000000000E+00      1          
         kp_q_inst:0_i:148_j:100   log                    factor                1.3550000000E-02      5.0000000000E-03      3.0000000000E+00       kp_q_inst:0           1.0000000000E+00      0.0000000000E+00      1          
         kp_q_inst:0_i:148_j:108   log                    factor                1.3550000000E-02      5.0000000000E-03      3.0000000000E+00       kp_q_inst:0           1.0000000000E+00      0.0000000000E+00      1          
         kp_q_inst:0_i:148_j:116   log                    factor                1.3550000000E-02      5.0000000000E-03      3.0000000000E+00       kp_q_inst:0           1.0000000000E+00      0.0000000000E+00      1          
         kp_q_inst:0_i:148_j:124   log                    factor                1.0000000000E+00      5.0000000000E-03      3.0000000000E+00       kp_q_inst:0           1.0000000000E+00      0.0000000000E+00      1          
         kp_q_inst:0_i:148_j:132   log                    factor                1.0000000000E+00      5.0000000000E-03      3.0000000000E+00       kp_q_inst:0           1.0000000000E+00      0.0000000000E+00      1          
          kp_q_inst:0_i:156_j:84   log                    factor                1.3550000000E-02      5.0000000000E-03      3.0000000000E+00       kp_q_inst:0           1.0000000000E+00      0.0000000000E+00      1          
          kp_q_inst:0_i:156_j:92   log                    factor                1.3550000000E-02      5.0000000000E-03      3.0000000000E+00       kp_q_inst:0           1.0000000000E+00      0.0000000000E+00      1          
         kp_q_inst:0_i:156_j:100   log                    factor                1.3550000000E-02      5.0000000000E-03      3.0000000000E+00       kp_q_inst:0           1.0000000000E+00      0.0000000000E+00      1          
         kp_q_inst:0_i:156_j:108   log                    factor                1.3550000000E-02      5.0000000000E-03      3.0000000000E+00       kp_q_inst:0           1.0000000000E+00      0.0000000000E+00      1          
         kp_q_inst:0_i:156_j:116   log                    factor                1.3550000000E-02      5.0000000000E-03      3.0000000000E+00       kp_q_inst:0           1.0000000000E+00      0.0000000000E+00      1          
         kp_q_inst:0_i:156_j:124   log                    factor                1.0000000000E+00      5.0000000000E-03      3.0000000000E+00       kp_q_inst:0           1.0000000000E+00      0.0000000000E+00      1          
         kp_q_inst:0_i:156_j:132   log                    factor                1.0000000000E+00      5.0000000000E-03      3.0000000000E+00       kp_q_inst:0           1.0000000000E+00      0.0000000000E+00      1          
          kp_q_inst:0_i:164_j:68   log                    factor                1.0000000000E+00      5.0000000000E-03      3.0000000000E+00       kp_q_inst:0           1.0000000000E+00      0.0000000000E+00      1          
          kp_q_inst:0_i:164_j:92   log                    factor                1.3550000000E-02      5.0000000000E-03      3.0000000000E+00       kp_q_inst:0           1.0000000000E+00      0.0000000000E+00      1          
         kp_q_inst:0_i:164_j:100   log                    factor                1.3550000000E-02      5.0000000000E-03      3.0000000000E+00       kp_q_inst:0           1.0000000000E+00      0.0000000000E+00      1          
          kp_q_inst:0_i:172_j:52   log                    factor                1.0000000000E+00      5.0000000000E-03      3.0000000000E+00       kp_q_inst:0           1.0000000000E+00      0.0000000000E+00      1          
          kp_q_inst:0_i:172_j:60   log                    factor                1.0000000000E+00      5.0000000000E-03      3.0000000000E+00       kp_q_inst:0           1.0000000000E+00      0.0000000000E+00      1          
            c_agly                 log                    factor                5.0000000000E-03      1.0000000000E-04      1.0000000000E-01       cond                  1.0000000000E+00      0.0000000000E+00      1          
            c_Bol                  log                    factor                5.0000000000E-03      1.0000000000E-04      1.0000000000E-01       cond                  1.0000000000E+00      0.0000000000E+00      1          
            c_Cant                 log                    factor                5.0000000000E-03      1.0000000000E-04      1.0000000000E-01       cond                  1.0000000000E+00      0.0000000000E+00      1          
            c_Rea                  log                    factor                5.0000000000E-03      1.0000000000E-04      1.0000000000E-01       cond                  1.0000000000E+00      0.0000000000E+00      1          