BEGIN options
  SAVE_FLOWS
END options

BEGIN dimensions
  MAXBOUND  66
END dimensions

BEGIN period  1
  4 136 48     140.00000000       0.00618167     138.00000000
  4 135 48     128.00000000       0.00618167     126.00000000
  4 135 49     122.00000000       0.00618167     120.00000000
  4 135 50     120.00000000       0.00618167     118.00000000
  4 135 51     120.00000000       0.00618167     118.00000000
  4 136 51     120.00000000       0.00618167     118.00000000
  4 136 52     120.00000000       0.00618167     118.00000000
  4 136 53     117.36689628       0.00618167     115.36689628
  2 135 53     115.56438541       0.00618167     113.56438541
  2 135 54     113.00000000       0.00618167     111.00000000
  2 135 55     111.48825646       0.00618167     109.48825646
  2 135 56     110.00000000       0.00618167     108.00000000
  4 134 56     110.00000000       0.00618167     108.00000000
  4 134 57     110.00000000       0.00618167     108.00000000
  4 134 58     110.00000000       0.00618167     108.00000000
  2 135 58     110.50000000       0.00618167     108.50000000
  4 136 58     109.59347030       0.00618167     107.59347030
  4 136 59     109.46401951       0.00618167     107.46401951
  2 135 59     108.50000000       0.00618167     106.50000000
  4 135 60     107.15924584       0.00618167     105.15924584
  4 134 60     106.40059546       0.00618167     104.40059546
  2 134 61     105.45000000       0.00618167     103.45000000
  4 134 62      97.50000000       0.00618167      95.50000000
  2 133 62      95.41660443       0.00618167      93.41660443
  4 132 62      93.90232066       0.00618167      91.90232066
  2 133 63      92.74947801       0.00618167      90.74947801
  4 133 64      91.00000000       0.00618167      89.00000000
  2 132 64      89.22212779       0.00618167      87.22212779
  5 133 65      87.00000000       0.00618167      85.00000000
  2 132 65      87.00000000       0.00618167      85.00000000
  2 132 66      87.00000000       0.00618167      85.00000000
  4 131 66      84.68260061       0.00618167      82.68260061
  2 131 67      82.98431269       0.00618167      80.98431269
  2 132 67      80.20000000       0.00618167      78.20000000
  2 132 68      79.82205882       0.00618167      77.82205882
  2 131 68      79.42000000       0.00618167      77.42000000
  2 131 69      77.53000000       0.00618167      75.53000000
  2 131 70      74.86000000       0.00618167      72.86000000
  4 130 70      72.75344543       0.00618167      70.75344543
  2 130 71      70.62000000       0.00618167      68.62000000
  2 131 71      70.43985882       0.00618167      68.43985882
  2 131 72      70.32445221       0.00618167      68.32445221
  2 130 72      70.04000000       0.00618167      68.04000000
  2 129 72      69.78000000       0.00618167      67.78000000
  2 129 73      69.99000000       0.00618167      67.99000000
  2 128 73      68.26000000       0.00618167      66.26000000
  4 127 73      65.22000000       0.00618167      63.22000000
  2 127 74      63.01000000       0.00618167      61.01000000
  2 128 74      62.04179686       0.00618167      60.04179686
  2 128 75      61.00000000       0.00618167      59.00000000
  2 128 76      61.00000000       0.00618167      59.00000000
  2 127 76      60.00340855       0.00618167      58.00340855
  2 127 77      59.17000000       0.00618167      57.17000000
  2 126 77      55.80000000       0.00618167      53.80000000
  2 126 78      55.67665630       0.00618167      53.67665630
  2 126 79      55.57377765       0.00618167      53.57377765
  2 125 79      55.46000000       0.00618167      53.46000000
  2 125 80      53.10000000       0.00618167      51.10000000
  2 125 81      49.98000000       0.00618167      47.98000000
  2 124 81      49.50000000       0.00618167      47.50000000
  2 124 82      46.00000000       0.00618167      44.00000000
  2 124 83      45.00000000       0.00618167      43.00000000
  2 123 83      45.00000000       0.00618167      43.00000000
  2 123 84      45.00000000       0.00618167      43.00000000
  2 122 84      45.00000000       0.00618167      43.00000000
  2 122 85      40.00000000       0.00618167      38.00000000
END period  1

