BEGIN options
  SAVE_FLOWS
END options

BEGIN griddata
  icelltype
    CONSTANT  0
  k  LAYERED
    CONSTANT  1.39566000E-05
    INTERNAL  FACTOR  1.0
           0.00600000       0.00600000       0.00600000       0.00600000       0.00600000       0.00600000       0.00600000       0.00600000       0.00600000       0.00600000       0.00600000       0.00600000       0.00600000       0.00600000       0.00600000       0.00600000       0.00600000       0.00600000       0.00600000       0.00600000
           0.00600000       0.00600000       0.00600000       0.00600000       0.00600000       0.00600000       0.00600000       0.00600000       0.00600000       0.00600000       0.00600000       0.00600000       0.00600000       0.00600000       0.00600000       0.00600000       0.00600000       0.00600000       0.00600000       0.00600000
           0.00600000       0.00600000       0.00600000       0.00600000       0.00600000       0.00600000       0.00600000       0.00600000       0.00600000       0.00600000       0.00600000       0.00600000       0.00600000       0.00600000       0.00600000       0.00600000       0.00600000       0.00600000       0.00600000       0.00600000
           0.00600000       0.00600000       0.00600000       0.00600000       0.00600000       0.00600000       0.00600000       0.00600000       0.00600000       0.00600000       0.00600000       0.00600000       0.00600000       0.00600000       0.00600000       0.00600000       0.00600000       0.00600000       0.00600000       0.00600000
           0.00600000       0.00600000       0.00600000       0.00600000       0.00600000       0.00600000       0.00600000       0.00600000       0.00600000       0.00600000       0.00600000       0.00600000       0.00600000       0.00600000       0.00600000       0.00600000       0.00600000       0.00600000       0.00600000       0.00600000
           0.00600000       0.00600000       0.00600000       0.00600000       0.00600000       0.00600000       0.00600000       0.00600000       0.00600000       0.00600000       0.00600000       0.00600000       0.00600000       0.00600000       0.00600000       0.00600000       0.00600000       0.00600000       0.00600000       0.00600000
           0.00600000       0.00600000       0.00600000       0.00600000       0.00600000       0.00600000       0.00600000       0.00600000       0.00600000       0.00600000       0.00600000       0.00600000       0.00600000       0.00600000       0.00600000       0.00600000       0.00600000       0.00600000       0.00600000       0.00600000
           0.00200000       0.00200000       0.00200000       0.00200000       0.00200000       0.00200000       0.00200000       0.00200000       0.00200000       0.00200000       0.00200000       0.00200000       0.00200000       0.00200000       0.00200000       0.00200000       0.00200000       0.00200000       0.00200000       0.00200000
           0.00200000       0.00200000       0.00200000       0.00200000       0.00200000       0.00200000       0.00200000       0.00200000       0.00200000       0.00200000       0.00200000       0.00200000       0.00200000       0.00200000       0.00200000       0.00200000       0.00200000       0.00200000       0.00200000       0.00200000
           0.00200000       0.00200000       0.00200000
           0.00600000       0.00600000       0.00600000       0.00600000       0.00600000       0.00600000       0.00600000       0.00600000       0.00600000       0.00600000       0.00600000       0.00600000       0.00600000       0.00600000       0.00600000       0.00600000       0.00600000       0.00600000       0.00600000       0.00600000
           0.00600000       0.00600000       0.00600000       0.00600000       0.00600000       0.00600000       0.00600000       0.00600000       0.00600000       0.00600000       0.00600000       0.00600000       0.00600000       0.00600000       0.00600000       0.00600000       0.00600000       0.00600000       0.00600000       0.00600000
           0.00600000       0.00600000       0.00600000       0.00600000       0.00600000       0.00600000       0.00600000       0.00600000       0.00600000       0.00600000       0.00600000       0.00600000       0.00600000       0.00600000       0.00600000       0.00600000       0.00600000       0.00600000       0.00600000       0.00600000
           0.00600000       0.00600000       0.00600000       0.00600000       0.00600000       0.00600000       0.00600000       0.00600000       0.00600000       0.00600000       0.00600000       0.00600000       0.00600000       0.00600000       0.00600000       0.00600000       0.00600000       0.00600000       0.00600000       0.00600000
           0.00600000       0.00600000       0.00600000       0.00600000       0.00600000       0.00600000       0.00600000       0.00600000       0.00600000       0.00600000       0.00600000       0.00600000       0.00600000       0.00600000       0.00600000       0.00600000       0.00600000       0.00600000       0.00600000       0.00600000
           0.00600000       0.00600000       0.00600000       0.00600000       0.00600000       0.00600000       0.00600000       0.00600000       0.00600000       0.00600000       0.00600000       0.00600000       0.00600000       0.00600000       0.00600000       0.00600000       0.00600000       0.00600000       0.00600000       0.00600000
           0.00600000       0.00600000       0.00600000       0.00600000       0.00600000       0.00600000       0.00600000       0.00600000       0.00600000       0.00600000       0.00600000       0.00600000       0.00600000       0.00600000       0.00600000       0.00600000       0.00600000       0.00600000       0.00600000       0.00179239
           0.00200000       0.00200000       0.00200000       0.00200000       0.00200000       0.00200000       0.00200000       0.00200000       0.00200000       0.00200000       0.00200000       0.00200000       0.00200000       0.00200000       0.00200000       0.00200000       0.00200000       0.00200000       0.00200000       0.00200000
           0.00200000       0.00200000       0.00200000       0.00200000       0.00200000       0.00200000       0.00200000       0.00200000       0.00200000       0.00200000       0.00200000       0.00200000       0.00200000       0.00200000       0.00200000       0.00200000       0.00200000       0.00200000       0.00200000       0.00200000
           0.00200000       0.00200000       0.00200000
           0.00600000       0.00600000       0.00600000       0.00600000       0.00600000       0.00600000       0.00600000       0.00600000       0.00600000       0.00600000       0.00600000       0.00600000       0.00600000       0.00600000       0.00600000       0.00600000       0.00600000       0.00600000       0.00600000       0.00600000
           0.00600000       0.00600000       0.00600000       0.00600000       0.00600000       0.00600000       0.00600000       0.00600000       0.00600000       0.00600000       0.00600000       0.00600000       0.00600000       0.00600000       0.00600000       0.00600000       0.00600000       0.00600000       0.00600000       0.00600000
           0.00600000       0.00600000       0.00600000       0.00600000       0.00600000       0.00600000       0.00600000       0.00600000       0.00600000       0.00600000       0.00600000       0.00600000       0.00600000       0.00600000       0.00600000       0.00600000       0.00600000       0.00600000       0.00600000       0.00600000
           0.00600000       0.00600000       0.00600000       0.00600000       0.00600000       0.00600000       0.00600000       0.00600000       0.00600000       0.00600000       0.00600000       0.00600000       0.00600000       0.00600000       0.00600000       0.00600000       0.00600000       0.00600000       0.00600000       0.00600000
           0.00600000       0.00600000       0.00600000       0.00600000       0.00600000       0.00600000       0.00600000       0.00600000       0.00600000       0.00600000       0.00600000       0.00600000       0.00600000       0.00600000       0.00600000       0.00600000       0.00600000       0.00600000       0.00600000       0.00600000
           0.00600000       0.00600000       0.00600000       0.00600000       0.00600000       0.00600000       0.00600000       0.00600000       0.00600000       0.00600000       0.00600000       0.00600000       0.00600000       0.00600000       0.00600000       0.00600000       0.00600000       0.00600000       0.00600000       0.00600000
           0.00600000       0.00600000       0.00600000       0.00600000       0.00600000       0.00600000       0.00600000       0.00600000       0.00600000       0.00600000       0.00600000       0.00600000       0.00600000       0.00600000       0.00600000       0.00600000       0.00600000       0.00600000       0.00179167       0.00179139
           0.00200000       0.00200000       0.00200000       0.00200000       0.00200000       0.00200000       0.00200000       0.00200000       0.00200000       0.00200000       0.00200000       0.00200000       0.00200000       0.00200000       0.00200000       0.00200000       0.00200000       0.00200000       0.00200000       0.00200000
           0.00200000       0.00200000       0.00200000       0.00200000       0.00200000       0.00200000       0.00200000       0.00200000       0.00200000       0.00200000       0.00200000       0.00200000       0.00200000       0.00200000       0.00200000       0.00200000       0.00200000       0.00200000       0.00200000       0.00200000
           0.00200000       0.00200000       0.00200000
           0.00600000       0.00600000       0.00600000       0.00600000       0.00600000       0.00600000       0.00600000       0.00600000       0.00600000       0.00600000       0.00600000       0.00600000       0.00600000       0.00600000       0.00600000       0.00600000       0.00600000       0.00600000       0.00600000       0.00600000
           0.00600000       0.00600000       0.00600000       0.00600000       0.00600000       0.00600000       0.00600000       0.00600000       0.00600000       0.00600000       0.00600000       0.00600000       0.00600000       0.00600000       0.00600000       0.00600000       0.00600000       0.00600000       0.00600000       0.00600000
           0.00600000       0.00600000       0.00600000       0.00600000       0.00600000       0.00600000       0.00600000       0.00600000       0.00600000       0.00600000       0.00600000       0.00600000       0.00600000       0.00600000       0.00600000       0.00600000       0.00600000       0.00600000       0.00600000       0.00600000
           0.00600000       0.00600000       0.00600000       0.00600000       0.00600000       0.00600000       0.00600000       0.00600000       0.00600000       0.00600000       0.00600000       0.00600000       0.00600000       0.00600000       0.00600000       0.00600000       0.00600000       0.00600000       0.00600000       0.00600000
           0.00600000       0.00600000       0.00600000       0.00600000       0.00600000       0.00600000       0.00600000       0.00600000       0.00600000       0.00600000       0.00600000       0.00600000       0.00600000       0.00600000       0.00600000       0.00600000       0.00600000       0.00600000       0.00600000       0.00600000
           0.00600000       0.00600000       0.00600000       0.00600000       0.00600000       0.00600000       0.00600000       0.00600000       0.00600000       0.00600000       0.00600000       0.00600000       0.00600000       0.00600000       0.00600000       0.00600000       0.00600000       0.00600000       0.00600000       0.00600000
           0.00600000       0.00600000       0.00600000       0.00600000       0.00600000       0.00600000       0.00600000       0.00600000       0.00600000       0.00600000       0.00600000       0.00600000       0.00600000       0.00600000       0.00600000       0.00600000       0.00600000       0.00600000       0.00179050       0.00179011
           0.00200000       0.00200000       0.00200000       0.00200000       0.00200000       0.00200000       0.00200000       0.00200000       0.00200000       0.00200000       0.00200000       0.00200000       0.00200000       0.00200000       0.00200000       0.00200000       0.00200000       0.00200000       0.00200000       0.00200000
           0.00200000       0.00200000       0.00200000       0.00200000       0.00200000       0.00200000       0.00200000       0.00200000       0.00200000       0.00200000       0.00200000       0.00200000       0.00200000       0.00200000       0.00200000       0.00200000       0.00200000       0.00200000       0.00200000       0.00200000
           0.00200000       0.00200000       0.00200000
           0.00600000       0.00600000       0.00600000       0.00600000       0.00600000       0.00600000       0.00600000       0.00600000       0.00600000       0.00600000       0.00600000       0.00600000       0.00600000       0.00600000       0.00600000       0.00600000       0.00600000       0.00600000       0.00600000       0.00600000
           0.00600000       0.00600000       0.00600000       0.00600000       0.00600000       0.00600000       0.00600000       0.00600000       0.00600000       0.00600000       0.00600000       0.00600000       0.00600000       0.00600000       0.00600000       0.00600000       0.00600000       0.00600000       0.00600000       0.00600000
           0.00600000       0.00600000       0.00600000       0.00600000       0.00600000       0.00600000       0.00600000       0.00600000       0.00600000       0.00600000       0.00600000       0.00600000       0.00600000       0.00600000       0.00600000       0.00600000       0.00600000       0.00600000       0.00600000       0.00600000
           0.00600000       0.00600000       0.00600000       0.00600000       0.00600000       0.00600000       0.00600000       0.00600000       0.00600000       0.00600000       0.00600000       0.00600000       0.00600000       0.00600000       0.00600000       0.00600000       0.00600000       0.00600000       0.00600000       0.00600000
           0.00600000       0.00600000       0.00600000       0.00600000       0.00600000       0.00600000       0.00600000       0.00600000       0.00600000       0.00600000       0.00600000       0.00600000       0.00600000       0.00600000       0.00600000       0.00600000       0.00600000       0.00600000       0.00600000       0.00600000
           0.00600000       0.00600000       0.00600000       0.00600000       0.00600000       0.00600000       0.00600000       0.00600000       0.00600000       0.00600000       0.00600000       0.00600000       0.00600000       0.00600000       0.00600000       0.00600000       0.00600000       0.00600000       0.00600000       0.00600000
           0.00600000       0.00600000       0.00600000       0.00600000       0.00600000       0.00600000       0.00600000       0.00600000       0.00600000       0.00600000       0.00600000       0.00600000       0.00600000       0.00600000       0.00600000       0.00600000       0.00600000       0.00600000       0.00178902       0.00178850
           0.00200000       0.00200000       0.00200000       0.00200000       0.00200000       0.00200000       0.00200000       0.00200000       0.00200000       0.00200000       0.00200000       0.00200000       0.00200000       0.00200000       0.00200000       0.00200000       0.00200000       0.00200000       0.00200000       0.00200000
           0.00200000       0.00200000       0.00200000       0.00200000       0.00200000       0.00200000       0.00200000       0.00200000       0.00200000       0.00200000       0.00200000       0.00200000       0.00200000       0.00200000       0.00200000       0.00200000       0.00200000       0.00200000       0.00200000       0.00200000
           0.00200000       0.00200000       0.00200000
           0.00600000       0.00600000       0.00600000       0.00600000       0.00600000       0.00600000       0.00600000       0.00600000       0.00600000       0.00600000       0.00600000       0.00600000       0.00600000       0.00600000       0.00600000       0.00600000       0.00600000       0.00600000       0.00600000       0.00600000
           0.00600000       0.00600000       0.00600000       0.00600000       0.00600000       0.00600000       0.00600000       0.00600000       0.00600000       0.00600000       0.00600000       0.00600000       0.00600000       0.00600000       0.00600000       0.00600000       0.00600000       0.00600000       0.00600000       0.00600000
           0.00600000       0.00600000       0.00600000       0.00600000       0.00600000       0.00600000       0.00600000       0.00600000       0.00600000       0.00600000       0.00600000       0.00600000       0.00600000       0.00600000       0.00600000       0.00600000       0.00600000       0.00600000       0.00600000       0.00600000
           0.00600000       0.00600000       0.00600000       0.00600000       0.00600000       0.00600000       0.00600000       0.00600000       0.00600000       0.00600000       0.00600000       0.00600000       0.00600000       0.00600000       0.00600000       0.00600000       0.00600000       0.00600000       0.00600000       0.00600000
           0.00600000       0.00600000       0.00600000       0.00600000       0.00600000       0.00600000       0.00600000       0.00600000       0.00600000       0.00600000       0.00600000       0.00600000       0.00600000       0.00600000       0.00600000       0.00600000       0.00600000       0.00600000       0.00600000       0.00600000
           0.00600000       0.00600000       0.00600000       0.00600000       0.00600000       0.00600000       0.00600000       0.00600000       0.00600000       0.00600000       0.00600000       0.00600000       0.00600000       0.00600000       0.00600000       0.00600000       0.00600000       0.00600000       0.00600000       0.00600000
           0.00600000       0.00600000       0.00600000       0.00600000       0.00600000       0.00600000       0.00600000       0.00600000       0.00600000       0.00600000       0.00600000       0.00600000       0.00600000       0.00600000       0.00600000       0.00600000       0.00600000       0.00600000       0.00178718       0.00178649
           0.00200000       0.00200000       0.00200000       0.00200000       0.00200000       0.00200000       0.00200000       0.00200000       0.00200000       0.00200000       0.00200000       0.00200000       0.00200000       0.00200000       0.00200000       0.00200000       0.00200000       0.00200000       0.00200000       0.00200000
           0.00200000       0.00200000       0.00200000       0.00200000       0.00200000       0.00200000       0.00200000       0.00200000       0.00200000       0.00200000       0.00200000       0.00200000       0.00200000       0.00200000       0.00200000       0.00200000       0.00200000       0.00200000       0.00200000       0.00200000
           0.00200000       0.00200000       0.00200000
           0.00600000       0.00600000       0.00600000       0.00600000       0.00600000       0.00600000       0.00600000       0.00600000       0.00600000       0.00600000       0.00600000       0.00600000       0.00600000       0.00600000       0.00600000       0.00600000       0.00600000       0.00600000       0.00600000       0.00600000
           0.00600000       0.00600000       0.00600000       0.00600000       0.00600000       0.00600000       0.00600000       0.00600000       0.00600000       0.00600000       0.00600000       0.00600000       0.00600000       0.00600000       0.00600000       0.00600000       0.00600000       0.00600000       0.00600000       0.00600000
           0.00600000       0.00600000       0.00600000       0.00600000       0.00600000       0.00600000       0.00600000       0.00600000       0.00600000       0.00600000       0.00600000       0.00600000       0.00600000       0.00600000       0.00600000       0.00600000       0.00600000       0.00600000       0.00600000       0.00600000
           0.00600000       0.00600000       0.00600000       0.00600000       0.00600000       0.00600000       0.00600000       0.00600000       0.00600000       0.00600000       0.00600000       0.00600000       0.00600000       0.00600000       0.00600000       0.00600000       0.00600000       0.00600000       0.00600000       0.00600000
           0.00600000       0.00600000       0.00600000       0.00600000       0.00600000       0.00600000       0.00600000       0.00600000       0.00600000       0.00600000       0.00600000       0.00600000       0.00600000       0.00600000       0.00600000       0.00600000       0.00600000       0.00600000       0.00600000       0.00600000
           0.00600000       0.00600000       0.00600000       0.00600000       0.00600000       0.00600000       0.00600000       0.00600000       0.00600000       0.00600000       0.00600000       0.00600000       0.00600000       0.00600000       0.00600000       0.00600000       0.00600000       0.00600000       0.00600000       0.00600000
           0.00600000       0.00600000       0.00600000       0.00600000       0.00600000       0.00600000       0.00600000       0.00600000       0.00600000       0.00600000       0.00600000       0.00600000       0.00600000       0.00600000       0.00600000       0.00600000       0.00600000       0.00600000       0.00178492       0.00178402
           0.00200000       0.00200000       0.00200000       0.00200000       0.00200000       0.00200000       0.00200000       0.00200000       0.00200000       0.00200000       0.00200000       0.00200000       0.00200000       0.00200000       0.00200000       0.00200000       0.00200000       0.00200000       0.00200000       0.00200000
           0.00200000       0.00200000       0.00200000       0.00200000       0.00200000       0.00200000       0.00200000       0.00200000       0.00200000       0.00200000       0.00200000       0.00200000       0.00200000       0.00200000       0.00200000       0.00200000       0.00200000       0.00200000       0.00200000       0.00200000
           0.00200000       0.00200000       0.00200000
           0.00600000       0.00600000       0.00600000       0.00600000       0.00600000       0.00600000       0.00600000       0.00600000       0.00600000       0.00600000       0.00600000       0.00600000       0.00600000       0.00600000       0.00600000       0.00600000       0.00600000       0.00600000       0.00600000       0.00600000
           0.00600000       0.00600000       0.00600000       0.00600000       0.00600000       0.00600000       0.00600000       0.00600000       0.00600000       0.00600000       0.00600000       0.00600000       0.00600000       0.00600000       0.00600000       0.00600000       0.00600000       0.00600000       0.00600000       0.00600000
           0.00600000       0.00600000       0.00600000       0.00600000       0.00600000       0.00600000       0.00600000       0.00600000       0.00600000       0.00600000       0.00600000       0.00600000       0.00600000       0.00600000       0.00600000       0.00600000       0.00600000       0.00600000       0.00600000       0.00600000
           0.00600000       0.00600000       0.00600000       0.00600000       0.00600000       0.00600000       0.00600000       0.00600000       0.00600000       0.00600000       0.00600000       0.00600000       0.00600000       0.00600000       0.00600000       0.00600000       0.00600000       0.00600000       0.00600000       0.00600000
           0.00600000       0.00600000       0.00600000       0.00600000       0.00600000       0.00600000       0.00600000       0.00600000       0.00600000       0.00600000       0.00600000       0.00600000       0.00600000       0.00600000       0.00600000       0.00600000       0.00600000       0.00600000       0.00600000       0.00600000
           0.00600000       0.00600000       0.00600000       0.00600000       0.00600000       0.00600000       0.00600000       0.00600000       0.00600000       0.00600000       0.00600000       0.00600000       0.00600000       0.00600000       0.00600000       0.00600000       0.00600000       0.00600000       0.00600000       0.00600000
           0.00600000       0.00600000       0.00600000       0.00600000       0.00600000       0.00600000       0.00600000       0.00600000       0.00600000       0.00600000       0.00600000       0.00600000       0.00600000       0.00600000       0.00600000       0.00600000       0.00600000       0.00178684       0.00178218       0.00178100
           0.00200000       0.00200000       0.00200000       0.00200000       0.00200000       0.00200000       0.00200000       0.00200000       0.00200000       0.00200000       0.00200000       0.00200000       0.00200000       0.00200000       0.00200000       0.00200000       0.00200000       0.00200000       0.00200000       0.00200000
           0.00200000       0.00200000       0.00200000       0.00200000       0.00200000       0.00200000       0.00200000       0.00200000       0.00200000       0.00200000       0.00200000       0.00200000       0.00200000       0.00200000       0.00200000       0.00200000       0.00200000       0.00200000       0.00200000       0.00200000
           0.00200000       0.00200000       0.00200000
           0.00600000       0.00600000       0.00600000       0.00600000       0.00600000       0.00600000       0.00600000       0.00600000       0.00600000       0.00600000       0.00600000       0.00600000       0.00600000       0.00600000       0.00600000       0.00600000       0.00600000       0.00600000       0.00600000       0.00600000
           0.00600000       0.00600000       0.00600000       0.00600000       0.00600000       0.00600000       0.00600000       0.00600000       0.00600000       0.00600000       0.00600000       0.00600000       0.00600000       0.00600000       0.00600000       0.00600000       0.00600000       0.00600000       0.00600000       0.00600000
           0.00600000       0.00600000       0.00600000       0.00600000       0.00600000       0.00600000       0.00600000       0.00600000       0.00600000       0.00600000       0.00600000       0.00600000       0.00600000       0.00600000       0.00600000       0.00600000       0.00600000       0.00600000       0.00600000       0.00600000
           0.00600000       0.00600000       0.00600000       0.00600000       0.00600000       0.00600000       0.00600000       0.00600000       0.00600000       0.00600000       0.00600000       0.00600000       0.00600000       0.00600000       0.00600000       0.00600000       0.00600000       0.00600000       0.00600000       0.00600000
           0.00600000       0.00600000       0.00600000       0.00600000       0.00600000       0.00600000       0.00600000       0.00600000       0.00600000       0.00600000       0.00600000       0.00600000       0.00600000       0.00600000       0.00600000       0.00600000       0.00600000       0.00600000       0.00600000       0.00600000
           0.00600000       0.00600000       0.00600000       0.00600000       0.00600000       0.00600000       0.00600000       0.00600000       0.00600000       0.00600000       0.00600000       0.00600000       0.00600000       0.00600000       0.00600000       0.00600000       0.00600000       0.00600000       0.00600000       0.00600000
           0.00600000       0.00600000       0.00600000       0.00600000       0.00600000       0.00600000       0.00600000       0.00600000       0.00600000       0.00600000       0.00600000       0.00600000       0.00600000       0.00600000       0.00600000       0.00600000       0.00600000       0.00178480       0.00177889       0.00181726
           0.00200000       0.00200000       0.00200000       0.00200000       0.00200000       0.00200000       0.00200000       0.00200000       0.00200000       0.00200000       0.00200000       0.00200000       0.00200000       0.00200000       0.00200000       0.00200000       0.00200000       0.00200000       0.00200000       0.00200000
           0.00200000       0.00200000       0.00200000       0.00200000       0.00200000       0.00200000       0.00200000       0.00200000       0.00200000       0.00200000       0.00200000       0.00200000       0.00200000       0.00200000       0.00200000       0.00200000       0.00200000       0.00200000       0.00200000       0.00200000
           0.00200000       0.00200000       0.00200000
           0.00600000       0.00600000       0.00600000       0.00600000       0.00600000       0.00600000       0.00600000       0.00600000       0.00600000       0.00600000       0.00600000       0.00600000       0.00600000       0.00600000       0.00600000       0.00600000       0.00600000       0.00600000       0.00600000       0.00600000
           0.00600000       0.00600000       0.00600000       0.00600000       0.00600000       0.00600000       0.00600000       0.00600000       0.00600000       0.00600000       0.00600000       0.00600000       0.00600000       0.00600000       0.00600000       0.00600000       0.00600000       0.00600000       0.00600000       0.00600000
           0.00600000       0.00600000       0.00600000       0.00600000       0.00600000       0.00600000       0.00600000       0.00600000       0.00600000       0.00600000       0.00600000       0.00600000       0.00600000       0.00600000       0.00600000       0.00600000       0.00600000       0.00600000       0.00600000       0.00600000
           0.00600000       0.00600000       0.00600000       0.00600000       0.00600000       0.00600000       0.00600000       0.00600000       0.00600000       0.00600000       0.00600000       0.00600000       0.00600000       0.00600000       0.00600000       0.00600000       0.00600000       0.00600000       0.00600000       0.00600000