BEGIN options
  SAVE_FLOWS
END options

BEGIN griddata
  icelltype
    CONSTANT  0
  k  LAYERED
    CONSTANT  8.18057000E-06
    INTERNAL  FACTOR  1.0
           0.00600000       0.00600000       0.00600000       0.00600000       0.00600000       0.00600000       0.00600000       0.00600000       0.00600000       0.00600000       0.00600000       0.00600000       0.00600000       0.00600000       0.00600000       0.00600000       0.00600000       0.00600000       0.00600000       0.00600000
           0.00600000       0.00600000       0.00600000       0.00600000       0.00600000       0.00600000       0.00600000       0.00600000       0.00600000       0.00600000       0.00600000       0.00600000       0.00600000       0.00600000       0.00600000       0.00600000       0.00600000       0.00600000       0.00600000       0.00600000
           0.00600000       0.00600000       0.00600000       0.00600000       0.00600000       0.00600000       0.00600000       0.00600000       0.00600000       0.00600000       0.00600000       0.00600000       0.00600000       0.00600000       0.00600000       0.00600000       0.00600000       0.00600000       0.00600000       0.00600000
           0.00600000       0.00600000       0.00600000       0.00600000       0.00600000       0.00600000       0.00600000       0.00600000       0.00600000       0.00600000       0.00600000       0.00600000       0.00600000       0.00600000       0.00600000       0.00600000       0.00600000       0.00600000       0.00600000       0.00600000
           0.00600000       0.00600000       0.00600000       0.00600000       0.00600000       0.00600000       0.00600000       0.00600000       0.00600000       0.00600000       0.00600000       0.00600000       0.00600000       0.00600000       0.00600000       0.00600000       0.00600000       0.00600000       0.00600000       0.00600000
           0.00600000       0.00600000       0.00600000       0.00600000       0.00600000       0.00600000       0.00600000       0.00600000       0.00600000       0.00600000       0.00600000       0.00600000       0.00600000       0.00600000       0.00600000       0.00600000       0.00600000       0.00600000       0.00600000       0.00600000
           0.00600000       0.00600000       0.00600000       0.00600000       0.00600000       0.00600000       0.00600000       0.00600000       0.00600000       0.00600000       0.00600000       0.00600000       0.00600000       0.00600000       0.00600000       0.00600000       0.00600000       0.00600000       0.00600000       0.00600000
           0.00200000       0.00200000       0.00200000       0.00200000       0.00200000       0.00200000       0.00200000       0.00200000       0.00200000       0.00200000       0.00200000       0.00200000       0.00200000       0.00200000       0.00200000       0.00200000       0.00200000       0.00200000       0.00200000       0.00200000
           0.00200000       0.00200000       0.00200000       0.00200000       0.00200000       0.00200000       0.00200000       0.00200000       0.00200000       0.00200000       0.00200000       0.00200000       0.00200000       0.00200000       0.00200000       0.00200000       0.00200000       0.00200000       0.00200000       0.00200000
           0.00200000       0.00200000       0.00200000
           0.00600000       0.00600000       0.00600000       0.00600000       0.00600000       0.00600000       0.00600000       0.00600000       0.00600000       0.00600000       0.00600000       0.00600000       0.00600000       0.00600000       0.00600000       0.00600000       0.00600000       0.00600000       0.00600000       0.00600000
           0.00600000       0.00600000       0.00600000       0.00600000       0.00600000       0.00600000       0.00600000       0.00600000       0.00600000       0.00600000       0.00600000       0.00600000       0.00600000       0.00600000       0.00600000       0.00600000       0.00600000       0.00600000       0.00600000       0.00600000
           0.00600000       0.00600000       0.00600000       0.00600000       0.00600000       0.00600000       0.00600000       0.00600000       0.00600000       0.00600000       0.00600000       0.00600000       0.00600000       0.00600000       0.00600000       0.00600000       0.00600000       0.00600000       0.00600000       0.00600000
           0.00600000       0.00600000       0.00600000       0.00600000       0.00600000       0.00600000       0.00600000       0.00600000       0.00600000       0.00600000       0.00600000       0.00600000       0.00600000       0.00600000       0.00600000       0.00600000       0.00600000       0.00600000       0.00600000       0.00600000
           0.00600000       0.00600000       0.00600000       0.00600000       0.00600000       0.00600000       0.00600000       0.00600000       0.00600000       0.00600000       0.00600000       0.00600000       0.00600000       0.00600000       0.00600000       0.00600000       0.00600000       0.00600000       0.00600000       0.00600000
           0.00600000       0.00600000       0.00600000       0.00600000       0.00600000       0.00600000       0.00600000       0.00600000       0.00600000       0.00600000       0.00600000       0.00600000       0.00600000       0.00600000       0.00600000       0.00600000       0.00600000       0.00600000       0.00600000       0.00600000
           0.00600000       0.00600000       0.00600000       0.00600000       0.00600000       0.00600000       0.00600000       0.00600000       0.00600000       0.00600000       0.00600000       0.00600000       0.00600000       0.00600000       0.00600000       0.00600000       0.00600000       0.00600000       0.00600000       0.00145692
           0.00200000       0.00200000       0.00200000       0.00200000       0.00200000       0.00200000       0.00200000       0.00200000       0.00200000       0.00200000       0.00200000       0.00200000       0.00200000       0.00200000       0.00200000       0.00200000       0.00200000       0.00200000       0.00200000       0.00200000
           0.00200000       0.00200000       0.00200000       0.00200000       0.00200000       0.00200000       0.00200000       0.00200000       0.00200000       0.00200000       0.00200000       0.00200000       0.00200000       0.00200000       0.00200000       0.00200000       0.00200000       0.00200000       0.00200000       0.00200000
           0.00200000       0.00200000       0.00200000
           0.00600000       0.00600000       0.00600000       0.00600000       0.00600000       0.00600000       0.00600000       0.00600000       0.00600000       0.00600000       0.00600000       0.00600000       0.00600000       0.00600000       0.00600000       0.00600000       0.00600000       0.00600000       0.00600000       0.00600000
           0.00600000       0.00600000       0.00600000       0.00600000       0.00600000       0.00600000       0.00600000       0.00600000       0.00600000       0.00600000       0.00600000       0.00600000       0.00600000       0.00600000       0.00600000       0.00600000       0.00600000       0.00600000       0.00600000       0.00600000
           0.00600000       0.00600000       0.00600000       0.00600000       0.00600000       0.00600000       0.00600000       0.00600000       0.00600000       0.00600000       0.00600000       0.00600000       0.00600000       0.00600000       0.00600000       0.00600000       0.00600000       0.00600000       0.00600000       0.00600000
           0.00600000       0.00600000       0.00600000       0.00600000       0.00600000       0.00600000       0.00600000       0.00600000       0.00600000       0.00600000       0.00600000       0.00600000       0.00600000       0.00600000       0.00600000       0.00600000       0.00600000       0.00600000       0.00600000       0.00600000
           0.00600000       0.00600000       0.00600000       0.00600000       0.00600000       0.00600000       0.00600000       0.00600000       0.00600000       0.00600000       0.00600000       0.00600000       0.00600000       0.00600000       0.00600000       0.00600000       0.00600000       0.00600000       0.00600000       0.00600000
           0.00600000       0.00600000       0.00600000       0.00600000       0.00600000       0.00600000       0.00600000       0.00600000       0.00600000       0.00600000       0.00600000       0.00600000       0.00600000       0.00600000       0.00600000       0.00600000       0.00600000       0.00600000       0.00600000       0.00600000
           0.00600000       0.00600000       0.00600000       0.00600000       0.00600000       0.00600000       0.00600000       0.00600000       0.00600000       0.00600000       0.00600000       0.00600000       0.00600000       0.00600000       0.00600000       0.00600000       0.00600000       0.00600000       0.00145686       0.00145607
           0.00200000       0.00200000       0.00200000       0.00200000       0.00200000       0.00200000       0.00200000       0.00200000       0.00200000       0.00200000       0.00200000       0.00200000       0.00200000       0.00200000       0.00200000       0.00200000       0.00200000       0.00200000       0.00200000       0.00200000
           0.00200000       0.00200000       0.00200000       0.00200000       0.00200000       0.00200000       0.00200000       0.00200000       0.00200000       0.00200000       0.00200000       0.00200000       0.00200000       0.00200000       0.00200000       0.00200000       0.00200000       0.00200000       0.00200000       0.00200000
           0.00200000       0.00200000       0.00200000
           0.00600000       0.00600000       0.00600000       0.00600000       0.00600000       0.00600000       0.00600000       0.00600000       0.00600000       0.00600000       0.00600000       0.00600000       0.00600000       0.00600000       0.00600000       0.00600000       0.00600000       0.00600000       0.00600000       0.00600000
           0.00600000       0.00600000       0.00600000       0.00600000       0.00600000       0.00600000       0.00600000       0.00600000       0.00600000       0.00600000       0.00600000       0.00600000       0.00600000       0.00600000       0.00600000       0.00600000       0.00600000       0.00600000       0.00600000       0.00600000
           0.00600000       0.00600000       0.00600000       0.00600000       0.00600000       0.00600000       0.00600000       0.00600000       0.00600000       0.00600000       0.00600000       0.00600000       0.00600000       0.00600000       0.00600000       0.00600000       0.00600000       0.00600000       0.00600000       0.00600000
           0.00600000       0.00600000       0.00600000       0.00600000       0.00600000       0.00600000       0.00600000       0.00600000       0.00600000       0.00600000       0.00600000       0.00600000       0.00600000       0.00600000       0.00600000       0.00600000       0.00600000       0.00600000       0.00600000       0.00600000
           0.00600000       0.00600000       0.00600000       0.00600000       0.00600000       0.00600000       0.00600000       0.00600000       0.00600000       0.00600000       0.00600000       0.00600000       0.00600000       0.00600000       0.00600000       0.00600000       0.00600000       0.00600000       0.00600000       0.00600000
           0.00600000       0.00600000       0.00600000       0.00600000       0.00600000       0.00600000       0.00600000       0.00600000       0.00600000       0.00600000       0.00600000       0.00600000       0.00600000       0.00600000       0.00600000       0.00600000       0.00600000       0.00600000       0.00600000       0.00600000
           0.00600000       0.00600000       0.00600000       0.00600000       0.00600000       0.00600000       0.00600000       0.00600000       0.00600000       0.00600000       0.00600000       0.00600000       0.00600000       0.00600000       0.00600000       0.00600000       0.00600000       0.00600000       0.00145606       0.00145502
           0.00200000       0.00200000       0.00200000       0.00200000       0.00200000       0.00200000       0.00200000       0.00200000       0.00200000       0.00200000       0.00200000       0.00200000       0.00200000       0.00200000       0.00200000       0.00200000       0.00200000       0.00200000       0.00200000       0.00200000
           0.00200000       0.00200000       0.00200000       0.00200000       0.00200000       0.00200000       0.00200000       0.00200000       0.00200000       0.00200000       0.00200000       0.00200000       0.00200000       0.00200000       0.00200000       0.00200000       0.00200000       0.00200000       0.00200000       0.00200000
           0.00200000       0.00200000       0.00200000
           0.00600000       0.00600000       0.00600000       0.00600000       0.00600000       0.00600000       0.00600000       0.00600000       0.00600000       0.00600000       0.00600000       0.00600000       0.00600000       0.00600000       0.00600000       0.00600000       0.00600000       0.00600000       0.00600000       0.00600000
           0.00600000       0.00600000       0.00600000       0.00600000       0.00600000       0.00600000       0.00600000       0.00600000       0.00600000       0.00600000       0.00600000       0.00600000       0.00600000       0.00600000       0.00600000       0.00600000       0.00600000       0.00600000       0.00600000       0.00600000
           0.00600000       0.00600000       0.00600000       0.00600000       0.00600000       0.00600000       0.00600000       0.00600000       0.00600000       0.00600000       0.00600000       0.00600000       0.00600000       0.00600000       0.00600000       0.00600000       0.00600000       0.00600000       0.00600000       0.00600000
           0.00600000       0.00600000       0.00600000       0.00600000       0.00600000       0.00600000       0.00600000       0.00600000       0.00600000       0.00600000       0.00600000       0.00600000       0.00600000       0.00600000       0.00600000       0.00600000       0.00600000       0.00600000       0.00600000       0.00600000
           0.00600000       0.00600000       0.00600000       0.00600000       0.00600000       0.00600000       0.00600000       0.00600000       0.00600000       0.00600000       0.00600000       0.00600000       0.00600000       0.00600000       0.00600000       0.00600000       0.00600000       0.00600000       0.00600000       0.00600000
           0.00600000       0.00600000       0.00600000       0.00600000       0.00600000       0.00600000       0.00600000       0.00600000       0.00600000       0.00600000       0.00600000       0.00600000       0.00600000       0.00600000       0.00600000       0.00600000       0.00600000       0.00600000       0.00600000       0.00600000
           0.00600000       0.00600000       0.00600000       0.00600000       0.00600000       0.00600000       0.00600000       0.00600000       0.00600000       0.00600000       0.00600000       0.00600000       0.00600000       0.00600000       0.00600000       0.00600000       0.00600000       0.00600000       0.00145512       0.00145378
           0.00200000       0.00200000       0.00200000       0.00200000       0.00200000       0.00200000       0.00200000       0.00200000       0.00200000       0.00200000       0.00200000       0.00200000       0.00200000       0.00200000       0.00200000       0.00200000       0.00200000       0.00200000       0.00200000       0.00200000
           0.00200000       0.00200000       0.00200000       0.00200000       0.00200000       0.00200000       0.00200000       0.00200000       0.00200000       0.00200000       0.00200000       0.00200000       0.00200000       0.00200000       0.00200000       0.00200000       0.00200000       0.00200000       0.00200000       0.00200000
           0.00200000       0.00200000       0.00200000
           0.00600000       0.00600000       0.00600000       0.00600000       0.00600000       0.00600000       0.00600000       0.00600000       0.00600000       0.00600000       0.00600000       0.00600000       0.00600000       0.00600000       0.00600000       0.00600000       0.00600000       0.00600000       0.00600000       0.00600000
           0.00600000       0.00600000       0.00600000       0.00600000       0.00600000       0.00600000       0.00600000       0.00600000       0.00600000       0.00600000       0.00600000       0.00600000       0.00600000       0.00600000       0.00600000       0.00600000       0.00600000       0.00600000       0.00600000       0.00600000
           0.00600000       0.00600000       0.00600000       0.00600000       0.00600000       0.00600000       0.00600000       0.00600000       0.00600000       0.00600000       0.00600000       0.00600000       0.00600000       0.00600000       0.00600000       0.00600000       0.00600000       0.00600000       0.00600000       0.00600000
           0.00600000       0.00600000       0.00600000       0.00600000       0.00600000       0.00600000       0.00600000       0.00600000       0.00600000       0.00600000       0.00600000       0.00600000       0.00600000       0.00600000       0.00600000       0.00600000       0.00600000       0.00600000       0.00600000       0.00600000
           0.00600000       0.00600000       0.00600000       0.00600000       0.00600000       0.00600000       0.00600000       0.00600000       0.00600000       0.00600000       0.00600000       0.00600000       0.00600000       0.00600000       0.00600000       0.00600000       0.00600000       0.00600000       0.00600000       0.00600000
           0.00600000       0.00600000       0.00600000       0.00600000       0.00600000       0.00600000       0.00600000       0.00600000       0.00600000       0.00600000       0.00600000       0.00600000       0.00600000       0.00600000       0.00600000       0.00600000       0.00600000       0.00600000       0.00600000       0.00600000
           0.00600000       0.00600000       0.00600000       0.00600000       0.00600000       0.00600000       0.00600000       0.00600000       0.00600000       0.00600000       0.00600000       0.00600000       0.00600000       0.00600000       0.00600000       0.00600000       0.00600000       0.00600000       0.00145402       0.00145231
           0.00200000       0.00200000       0.00200000       0.00200000       0.00200000       0.00200000       0.00200000       0.00200000       0.00200000       0.00200000       0.00200000       0.00200000       0.00200000       0.00200000       0.00200000       0.00200000       0.00200000       0.00200000       0.00200000       0.00200000
           0.00200000       0.00200000       0.00200000       0.00200000       0.00200000       0.00200000       0.00200000       0.00200000       0.00200000       0.00200000       0.00200000       0.00200000       0.00200000       0.00200000       0.00200000       0.00200000       0.00200000       0.00200000       0.00200000       0.00200000
           0.00200000       0.00200000       0.00200000
           0.00600000       0.00600000       0.00600000       0.00600000       0.00600000       0.00600000       0.00600000       0.00600000       0.00600000       0.00600000       0.00600000       0.00600000       0.00600000       0.00600000       0.00600000       0.00600000       0.00600000       0.00600000       0.00600000       0.00600000
           0.00600000       0.00600000       0.00600000       0.00600000       0.00600000       0.00600000       0.00600000       0.00600000       0.00600000       0.00600000       0.00600000       0.00600000       0.00600000       0.00600000       0.00600000       0.00600000       0.00600000       0.00600000       0.00600000       0.00600000
           0.00600000       0.00600000       0.00600000       0.00600000       0.00600000       0.00600000       0.00600000       0.00600000       0.00600000       0.00600000       0.00600000       0.00600000       0.00600000       0.00600000       0.00600000       0.00600000       0.00600000       0.00600000       0.00600000       0.00600000
           0.00600000       0.00600000       0.00600000       0.00600000       0.00600000       0.00600000       0.00600000       0.00600000       0.00600000       0.00600000       0.00600000       0.00600000       0.00600000       0.00600000       0.00600000       0.00600000       0.00600000       0.00600000       0.00600000       0.00600000
           0.00600000       0.00600000       0.00600000       0.00600000       0.00600000       0.00600000       0.00600000       0.00600000       0.00600000       0.00600000       0.00600000       0.00600000       0.00600000       0.00600000       0.00600000       0.00600000       0.00600000       0.00600000       0.00600000       0.00600000
           0.00600000       0.00600000       0.00600000       0.00600000       0.00600000       0.00600000       0.00600000       0.00600000       0.00600000       0.00600000       0.00600000       0.00600000       0.00600000       0.00600000       0.00600000       0.00600000       0.00600000       0.00600000       0.00600000       0.00600000
           0.00600000       0.00600000       0.00600000       0.00600000       0.00600000       0.00600000       0.00600000       0.00600000       0.00600000       0.00600000       0.00600000       0.00600000       0.00600000       0.00600000       0.00600000       0.00600000       0.00600000       0.00600000       0.00145279       0.00145064
           0.00200000       0.00200000       0.00200000       0.00200000       0.00200000       0.00200000       0.00200000       0.00200000       0.00200000       0.00200000       0.00200000       0.00200000       0.00200000       0.00200000       0.00200000       0.00200000       0.00200000       0.00200000       0.00200000       0.00200000
           0.00200000       0.00200000       0.00200000       0.00200000       0.00200000       0.00200000       0.00200000       0.00200000       0.00200000       0.00200000       0.00200000       0.00200000       0.00200000       0.00200000       0.00200000       0.00200000       0.00200000       0.00200000       0.00200000       0.00200000
           0.00200000       0.00200000       0.00200000
           0.00600000       0.00600000       0.00600000       0.00600000       0.00600000       0.00600000       0.00600000       0.00600000       0.00600000       0.00600000       0.00600000       0.00600000       0.00600000       0.00600000       0.00600000       0.00600000       0.00600000       0.00600000       0.00600000       0.00600000
           0.00600000       0.00600000       0.00600000       0.00600000       0.00600000       0.00600000       0.00600000       0.00600000       0.00600000       0.00600000       0.00600000       0.00600000       0.00600000       0.00600000       0.00600000       0.00600000       0.00600000       0.00600000       0.00600000       0.00600000
           0.00600000       0.00600000       0.00600000       0.00600000       0.00600000       0.00600000       0.00600000       0.00600000       0.00600000       0.00600000       0.00600000       0.00600000       0.00600000       0.00600000       0.00600000       0.00600000       0.00600000       0.00600000       0.00600000       0.00600000
           0.00600000       0.00600000       0.00600000       0.00600000       0.00600000       0.00600000       0.00600000       0.00600000       0.00600000       0.00600000       0.00600000       0.00600000       0.00600000       0.00600000       0.00600000       0.00600000       0.00600000       0.00600000       0.00600000       0.00600000
           0.00600000       0.00600000       0.00600000       0.00600000       0.00600000       0.00600000       0.00600000       0.00600000       0.00600000       0.00600000       0.00600000       0.00600000       0.00600000       0.00600000       0.00600000       0.00600000       0.00600000       0.00600000       0.00600000       0.00600000
           0.00600000       0.00600000       0.00600000       0.00600000       0.00600000       0.00600000       0.00600000       0.00600000       0.00600000       0.00600000       0.00600000       0.00600000       0.00600000       0.00600000       0.00600000       0.00600000       0.00600000       0.00600000       0.00600000       0.00600000
           0.00600000       0.00600000       0.00600000       0.00600000       0.00600000       0.00600000       0.00600000       0.00600000       0.00600000       0.00600000       0.00600000       0.00600000       0.00600000       0.00600000       0.00600000       0.00600000       0.00600000       0.00145811       0.00145144       0.00144879
           0.00200000       0.00200000       0.00200000       0.00200000       0.00200000       0.00200000       0.00200000       0.00200000       0.00200000       0.00200000       0.00200000       0.00200000       0.00200000       0.00200000       0.00200000       0.00200000       0.00200000       0.00200000       0.00200000       0.00200000
           0.00200000       0.00200000       0.00200000       0.00200000       0.00200000       0.00200000       0.00200000       0.00200000       0.00200000       0.00200000       0.00200000       0.00200000       0.00200000       0.00200000       0.00200000       0.00200000       0.00200000       0.00200000       0.00200000       0.00200000
           0.00200000       0.00200000       0.00200000
           0.00600000       0.00600000       0.00600000       0.00600000       0.00600000       0.00600000       0.00600000       0.00600000       0.00600000       0.00600000       0.00600000       0.00600000       0.00600000       0.00600000       0.00600000       0.00600000       0.00600000       0.00600000       0.00600000       0.00600000
           0.00600000       0.00600000       0.00600000       0.00600000       0.00600000       0.00600000       0.00600000       0.00600000       0.00600000       0.00600000       0.00600000       0.00600000       0.00600000       0.00600000       0.00600000       0.00600000       0.00600000       0.00600000       0.00600000       0.00600000
           0.00600000       0.00600000       0.00600000       0.00600000       0.00600000       0.00600000       0.00600000       0.00600000       0.00600000       0.00600000       0.00600000       0.00600000       0.00600000       0.00600000       0.00600000       0.00600000       0.00600000       0.00600000       0.00600000       0.00600000
           0.00600000       0.00600000       0.00600000       0.00600000       0.00600000       0.00600000       0.00600000       0.00600000       0.00600000       0.00600000       0.00600000       0.00600000       0.00600000       0.00600000       0.00600000       0.00600000       0.00600000       0.00600000       0.00600000       0.00600000
           0.00600000       0.00600000       0.00600000       0.00600000       0.00600000       0.00600000       0.00600000       0.00600000       0.00600000       0.00600000       0.00600000       0.00600000       0.00600000       0.00600000       0.00600000       0.00600000       0.00600000       0.00600000       0.00600000       0.00600000
           0.00600000       0.00600000       0.00600000       0.00600000       0.00600000       0.00600000       0.00600000       0.00600000       0.00600000       0.00600000       0.00600000       0.00600000       0.00600000       0.00600000       0.00600000       0.00600000       0.00600000       0.00600000       0.00600000       0.00600000
           0.00600000       0.00600000       0.00600000       0.00600000       0.00600000       0.00600000       0.00600000       0.00600000       0.00600000       0.00600000       0.00600000       0.00600000       0.00600000       0.00600000       0.00600000       0.00600000       0.00600000       0.00145811       0.00145003       0.00150465
           0.00200000       0.00200000       0.00200000       0.00200000       0.00200000       0.00200000       0.00200000       0.00200000       0.00200000       0.00200000       0.00200000       0.00200000       0.00200000       0.00200000       0.00200000       0.00200000       0.00200000       0.00200000       0.00200000       0.00200000
           0.00200000       0.00200000       0.00200000       0.00200000       0.00200000       0.00200000       0.00200000       0.00200000       0.00200000       0.00200000       0.00200000       0.00200000       0.00200000       0.00200000       0.00200000       0.00200000       0.00200000       0.00200000       0.00200000       0.00200000
           0.00200000       0.00200000       0.00200000
           0.00600000       0.00600000       0.00600000       0.00600000       0.00600000       0.00600000       0.00600000       0.00600000       0.00600000       0.00600000       0.00600000       0.00600000       0.00600000       0.00600000       0.00600000       0.00600000       0.00600000       0.00600000       0.00600000       0.00600000
           0.00600000       0.00600000       0.00600000       0.00600000       0.00600000       0.00600000       0.00600000       0.00600000       0.00600000       0.00600000       0.00600000       0.00600000       0.00600000       0.00600000       0.00600000       0.00600000       0.00600000       0.00600000       0.00600000       0.00600000
           0.00600000       0.00600000       0.00600000       0.00600000       0.00600000       0.00600000       0.00600000       0.00600000       0.00600000       0.00600000       0.00600000       0.00600000       0.00600000       0.00600000       0.00600000       0.00600000       0.00600000       0.00600000       0.00600000       0.00600000
           0.00600000       0.00600000       0.00600000       0.00600000       0.00600000       0.00600000       0.00600000       0.00600000       0.00600000       0.00600000       0.00600000       0.00600000       0.00600000       0.00600000       0.00600000       0.00600000       0.00600000       0.00600000       0.00600000       0.00600000