BEGIN options
END options

BEGIN griddata
  icelltype
    CONSTANT  0
  k  LAYERED
    CONSTANT  4.64200000E-06
    INTERNAL  FACTOR  1.0
           0.00600000       0.00600000       0.00600000       0.00600000       0.00600000       0.00600000       0.00600000       0.00600000       0.00600000       0.00600000       0.00600000       0.00600000       0.00600000       0.00600000       0.00600000       0.00600000       0.00600000       0.00600000       0.00600000       0.00600000
           0.00600000       0.00600000       0.00600000       0.00600000       0.00600000       0.00600000       0.00600000       0.00600000       0.00600000       0.00600000       0.00600000       0.00600000       0.00600000       0.00600000       0.00600000       0.00600000       0.00600000       0.00600000       0.00600000       0.00600000
           0.00600000       0.00600000       0.00600000       0.00600000       0.00600000       0.00600000       0.00600000       0.00600000       0.00600000       0.00600000       0.00600000       0.00600000       0.00600000       0.00600000       0.00600000       0.00600000       0.00600000       0.00600000       0.00600000       0.00600000
           0.00600000       0.00600000       0.00600000       0.00600000       0.00600000       0.00600000       0.00600000       0.00600000       0.00600000       0.00600000       0.00600000       0.00600000       0.00600000       0.00600000       0.00600000       0.00600000       0.00600000       0.00600000       0.00600000       0.00600000
           0.00600000       0.00600000       0.00600000       0.00600000       0.00600000       0.00600000       0.00600000       0.00600000       0.00600000       0.00600000       0.00600000       0.00600000       0.00600000       0.00600000       0.00600000       0.00600000       0.00600000       0.00600000       0.00600000       0.00600000
           0.00600000       0.00600000       0.00600000       0.00600000       0.00600000       0.00600000       0.00600000       0.00600000       0.00600000       0.00600000       0.00600000       0.00600000       0.00600000       0.00600000       0.00600000       0.00600000       0.00600000       0.00600000       0.00600000       0.00600000
           0.00600000       0.00600000       0.00600000       0.00600000       0.00600000       0.00600000       0.00600000       0.00600000       0.00600000       0.00600000       0.00600000       0.00600000       0.00600000       0.00600000       0.00600000       0.00600000       0.00600000       0.00600000       0.00600000       0.00600000
           0.00600000       0.00600000       0.00600000       0.00600000       0.00600000       0.00600000       0.00600000       0.00600000       0.00600000       0.00600000       0.00600000       0.00600000       0.00600000       0.00600000       0.00600000       0.00600000       0.00600000       0.00600000       0.00600000       0.00600000
           0.00600000       0.00600000       0.00600000       0.00600000       0.00600000       0.00600000       0.00600000       0.00600000       0.00600000       0.00600000       0.00600000       0.00600000       0.00600000       0.00600000       0.00600000       0.00600000       0.00600000       0.00600000       0.00600000       0.00600000
           0.00600000       0.00600000       0.00600000
           0.00600000       0.00600000       0.00600000       0.00600000       0.00600000       0.00600000       0.00600000       0.00600000       0.00600000       0.00600000       0.00600000       0.00600000       0.00600000       0.00600000       0.00600000       0.00600000       0.00600000       0.00600000       0.00600000       0.00600000
           0.00600000       0.00600000       0.00600000       0.00600000       0.00600000       0.00600000       0.00600000       0.00600000       0.00600000       0.00600000       0.00600000       0.00600000       0.00600000       0.00600000       0.00600000       0.00600000       0.00600000       0.00600000       0.00600000       0.00600000
           0.00600000       0.00600000       0.00600000       0.00600000       0.00600000       0.00600000       0.00600000       0.00600000       0.00600000       0.00600000       0.00600000       0.00600000       0.00600000       0.00600000       0.00600000       0.00600000       0.00600000       0.00600000       0.00600000       0.00600000
           0.00600000       0.00600000       0.00600000       0.00600000       0.00600000       0.00600000       0.00600000       0.00600000       0.00600000       0.00600000       0.00600000       0.00600000       0.00600000       0.00600000       0.00600000       0.00600000       0.00600000       0.00600000       0.00600000       0.00600000
           0.00600000       0.00600000       0.00600000       0.00600000       0.00600000       0.00600000       0.00600000       0.00600000       0.00600000       0.00600000       0.00600000       0.00600000       0.00600000       0.00600000       0.00600000       0.00600000       0.00600000       0.00600000       0.00600000       0.00600000
           0.00600000       0.00600000       0.00600000       0.00600000       0.00600000       0.00600000       0.00600000       0.00600000       0.00600000       0.00600000       0.00600000       0.00600000       0.00600000       0.00600000       0.00600000       0.00600000       0.00600000       0.00600000       0.00600000       0.00600000
           0.00600000       0.00600000       0.00600000       0.00600000       0.00600000       0.00600000       0.00600000       0.00600000       0.00600000       0.00600000       0.00600000       0.00600000       0.00600000       0.00600000       0.00600000       0.00600000       0.00600000       0.00600000       0.00600000       0.00119945
           0.00600000       0.00600000       0.00600000       0.00600000       0.00600000       0.00600000       0.00600000       0.00600000       0.00600000       0.00600000       0.00600000       0.00600000       0.00600000       0.00600000       0.00600000       0.00600000       0.00600000       0.00600000       0.00600000       0.00600000
           0.00600000       0.00600000       0.00600000       0.00600000       0.00600000       0.00600000       0.00600000       0.00600000       0.00600000       0.00600000       0.00600000       0.00600000       0.00600000       0.00600000       0.00600000       0.00600000       0.00600000       0.00600000       0.00600000       0.00600000
           0.00600000       0.00600000       0.00600000
           0.00600000       0.00600000       0.00600000       0.00600000       0.00600000       0.00600000       0.00600000       0.00600000       0.00600000       0.00600000       0.00600000       0.00600000       0.00600000       0.00600000       0.00600000       0.00600000       0.00600000       0.00600000       0.00600000       0.00600000
           0.00600000       0.00600000       0.00600000       0.00600000       0.00600000       0.00600000       0.00600000       0.00600000       0.00600000       0.00600000       0.00600000       0.00600000       0.00600000       0.00600000       0.00600000       0.00600000       0.00600000       0.00600000       0.00600000       0.00600000
           0.00600000       0.00600000       0.00600000       0.00600000       0.00600000       0.00600000       0.00600000       0.00600000       0.00600000       0.00600000       0.00600000       0.00600000       0.00600000       0.00600000       0.00600000       0.00600000       0.00600000       0.00600000       0.00600000       0.00600000
           0.00600000       0.00600000       0.00600000       0.00600000       0.00600000       0.00600000       0.00600000       0.00600000       0.00600000       0.00600000       0.00600000       0.00600000       0.00600000       0.00600000       0.00600000       0.00600000       0.00600000       0.00600000       0.00600000       0.00600000
           0.00600000       0.00600000       0.00600000       0.00600000       0.00600000       0.00600000       0.00600000       0.00600000       0.00600000       0.00600000       0.00600000       0.00600000       0.00600000       0.00600000       0.00600000       0.00600000       0.00600000       0.00600000       0.00600000       0.00600000
           0.00600000       0.00600000       0.00600000       0.00600000       0.00600000       0.00600000       0.00600000       0.00600000       0.00600000       0.00600000       0.00600000       0.00600000       0.00600000       0.00600000       0.00600000       0.00600000       0.00600000       0.00600000       0.00600000       0.00600000
           0.00600000       0.00600000       0.00600000       0.00600000       0.00600000       0.00600000       0.00600000       0.00600000       0.00600000       0.00600000       0.00600000       0.00600000       0.00600000       0.00600000       0.00600000       0.00600000       0.00600000       0.00600000       0.00120641       0.00120207
           0.00600000       0.00600000       0.00600000       0.00600000       0.00600000       0.00600000       0.00600000       0.00600000       0.00600000       0.00600000       0.00600000       0.00600000       0.00600000       0.00600000       0.00600000       0.00600000       0.00600000       0.00600000       0.00600000       0.00600000
           0.00600000       0.00600000       0.00600000       0.00600000       0.00600000       0.00600000       0.00600000       0.00600000       0.00600000       0.00600000       0.00600000       0.00600000       0.00600000       0.00600000       0.00600000       0.00600000       0.00600000       0.00600000       0.00600000       0.00600000
           0.00600000       0.00600000       0.00600000
           0.00600000       0.00600000       0.00600000       0.00600000       0.00600000       0.00600000       0.00600000       0.00600000       0.00600000       0.00600000       0.00600000       0.00600000       0.00600000       0.00600000       0.00600000       0.00600000       0.00600000       0.00600000       0.00600000       0.00600000
           0.00600000       0.00600000       0.00600000       0.00600000       0.00600000       0.00600000       0.00600000       0.00600000       0.00600000       0.00600000       0.00600000       0.00600000       0.00600000       0.00600000       0.00600000       0.00600000       0.00600000       0.00600000       0.00600000       0.00600000
           0.00600000       0.00600000       0.00600000       0.00600000       0.00600000       0.00600000       0.00600000       0.00600000       0.00600000       0.00600000       0.00600000       0.00600000       0.00600000       0.00600000       0.00600000       0.00600000       0.00600000       0.00600000       0.00600000       0.00600000
           0.00600000       0.00600000       0.00600000       0.00600000       0.00600000       0.00600000       0.00600000       0.00600000       0.00600000       0.00600000       0.00600000       0.00600000       0.00600000       0.00600000       0.00600000       0.00600000       0.00600000       0.00600000       0.00600000       0.00600000
           0.00600000       0.00600000       0.00600000       0.00600000       0.00600000       0.00600000       0.00600000       0.00600000       0.00600000       0.00600000       0.00600000       0.00600000       0.00600000       0.00600000       0.00600000       0.00600000       0.00600000       0.00600000       0.00600000       0.00600000
           0.00600000       0.00600000       0.00600000       0.00600000       0.00600000       0.00600000       0.00600000       0.00600000       0.00600000       0.00600000       0.00600000       0.00600000       0.00600000       0.00600000       0.00600000       0.00600000       0.00600000       0.00600000       0.00600000       0.00600000
           0.00600000       0.00600000       0.00600000       0.00600000       0.00600000       0.00600000       0.00600000       0.00600000       0.00600000       0.00600000       0.00600000       0.00600000       0.00600000       0.00600000       0.00600000       0.00600000       0.00600000       0.00600000       0.00121111       0.00120539
           0.00600000       0.00600000       0.00600000       0.00600000       0.00600000       0.00600000       0.00600000       0.00600000       0.00600000       0.00600000       0.00600000       0.00600000       0.00600000       0.00600000       0.00600000       0.00600000       0.00600000       0.00600000       0.00600000       0.00600000
           0.00600000       0.00600000       0.00600000       0.00600000       0.00600000       0.00600000       0.00600000       0.00600000       0.00600000       0.00600000       0.00600000       0.00600000       0.00600000       0.00600000       0.00600000       0.00600000       0.00600000       0.00600000       0.00600000       0.00600000
           0.00600000       0.00600000       0.00600000
           0.00600000       0.00600000       0.00600000       0.00600000       0.00600000       0.00600000       0.00600000       0.00600000       0.00600000       0.00600000       0.00600000       0.00600000       0.00600000       0.00600000       0.00600000       0.00600000       0.00600000       0.00600000       0.00600000       0.00600000
           0.00600000       0.00600000       0.00600000       0.00600000       0.00600000       0.00600000       0.00600000       0.00600000       0.00600000       0.00600000       0.00600000       0.00600000       0.00600000       0.00600000       0.00600000       0.00600000       0.00600000       0.00600000       0.00600000       0.00600000
           0.00600000       0.00600000       0.00600000       0.00600000       0.00600000       0.00600000       0.00600000       0.00600000       0.00600000       0.00600000       0.00600000       0.00600000       0.00600000       0.00600000       0.00600000       0.00600000       0.00600000       0.00600000       0.00600000       0.00600000
           0.00600000       0.00600000       0.00600000       0.00600000       0.00600000       0.00600000       0.00600000       0.00600000       0.00600000       0.00600000       0.00600000       0.00600000       0.00600000       0.00600000       0.00600000       0.00600000       0.00600000       0.00600000       0.00600000       0.00600000
           0.00600000       0.00600000       0.00600000       0.00600000       0.00600000       0.00600000       0.00600000       0.00600000       0.00600000       0.00600000       0.00600000       0.00600000       0.00600000       0.00600000       0.00600000       0.00600000       0.00600000       0.00600000       0.00600000       0.00600000
           0.00600000       0.00600000       0.00600000       0.00600000       0.00600000       0.00600000       0.00600000       0.00600000       0.00600000       0.00600000       0.00600000       0.00600000       0.00600000       0.00600000       0.00600000       0.00600000       0.00600000       0.00600000       0.00600000       0.00600000
           0.00600000       0.00600000       0.00600000       0.00600000       0.00600000       0.00600000       0.00600000       0.00600000       0.00600000       0.00600000       0.00600000       0.00600000       0.00600000       0.00600000       0.00600000       0.00600000       0.00600000       0.00600000       0.00121697       0.00120952
           0.00600000       0.00600000       0.00600000       0.00600000       0.00600000       0.00600000       0.00600000       0.00600000       0.00600000       0.00600000       0.00600000       0.00600000       0.00600000       0.00600000       0.00600000       0.00600000       0.00600000       0.00600000       0.00600000       0.00600000
           0.00600000       0.00600000       0.00600000       0.00600000       0.00600000       0.00600000       0.00600000       0.00600000       0.00600000       0.00600000       0.00600000       0.00600000       0.00600000       0.00600000       0.00600000       0.00600000       0.00600000       0.00600000       0.00600000       0.00600000
           0.00600000       0.00600000       0.00600000
           0.00600000       0.00600000       0.00600000       0.00600000       0.00600000       0.00600000       0.00600000       0.00600000       0.00600000       0.00600000       0.00600000       0.00600000       0.00600000       0.00600000       0.00600000       0.00600000       0.00600000       0.00600000       0.00600000       0.00600000
           0.00600000       0.00600000       0.00600000       0.00600000       0.00600000       0.00600000       0.00600000       0.00600000       0.00600000       0.00600000       0.00600000       0.00600000       0.00600000       0.00600000       0.00600000       0.00600000       0.00600000       0.00600000       0.00600000       0.00600000
           0.00600000       0.00600000       0.00600000       0.00600000       0.00600000       0.00600000       0.00600000       0.00600000       0.00600000       0.00600000       0.00600000       0.00600000       0.00600000       0.00600000       0.00600000       0.00600000       0.00600000       0.00600000       0.00600000       0.00600000
           0.00600000       0.00600000       0.00600000       0.00600000       0.00600000       0.00600000       0.00600000       0.00600000       0.00600000       0.00600000       0.00600000       0.00600000       0.00600000       0.00600000       0.00600000       0.00600000       0.00600000       0.00600000       0.00600000       0.00600000
           0.00600000       0.00600000       0.00600000       0.00600000       0.00600000       0.00600000       0.00600000       0.00600000       0.00600000       0.00600000       0.00600000       0.00600000       0.00600000       0.00600000       0.00600000       0.00600000       0.00600000       0.00600000       0.00600000       0.00600000
           0.00600000       0.00600000       0.00600000       0.00600000       0.00600000       0.00600000       0.00600000       0.00600000       0.00600000       0.00600000       0.00600000       0.00600000       0.00600000       0.00600000       0.00600000       0.00600000       0.00600000       0.00600000       0.00600000       0.00600000
           0.00600000       0.00600000       0.00600000       0.00600000       0.00600000       0.00600000       0.00600000       0.00600000       0.00600000       0.00600000       0.00600000       0.00600000       0.00600000       0.00600000       0.00600000       0.00600000       0.00600000       0.00600000       0.00122420       0.00121460
           0.00600000       0.00600000       0.00600000       0.00600000       0.00600000       0.00600000       0.00600000       0.00600000       0.00600000       0.00600000       0.00600000       0.00600000       0.00600000       0.00600000       0.00600000       0.00600000       0.00600000       0.00600000       0.00600000       0.00600000
           0.00600000       0.00600000       0.00600000       0.00600000       0.00600000       0.00600000       0.00600000       0.00600000       0.00600000       0.00600000       0.00600000       0.00600000       0.00600000       0.00600000       0.00600000       0.00600000       0.00600000       0.00600000       0.00600000       0.00600000
           0.00600000       0.00600000       0.00600000
           0.00600000       0.00600000       0.00600000       0.00600000       0.00600000       0.00600000       0.00600000       0.00600000       0.00600000       0.00600000       0.00600000       0.00600000       0.00600000       0.00600000       0.00600000       0.00600000       0.00600000       0.00600000       0.00600000       0.00600000
           0.00600000       0.00600000       0.00600000       0.00600000       0.00600000       0.00600000       0.00600000       0.00600000       0.00600000       0.00600000       0.00600000       0.00600000       0.00600000       0.00600000       0.00600000       0.00600000       0.00600000       0.00600000       0.00600000       0.00600000
           0.00600000       0.00600000       0.00600000       0.00600000       0.00600000       0.00600000       0.00600000       0.00600000       0.00600000       0.00600000       0.00600000       0.00600000       0.00600000       0.00600000       0.00600000       0.00600000       0.00600000       0.00600000       0.00600000       0.00600000
           0.00600000       0.00600000       0.00600000       0.00600000       0.00600000       0.00600000       0.00600000       0.00600000       0.00600000       0.00600000       0.00600000       0.00600000       0.00600000       0.00600000       0.00600000       0.00600000       0.00600000       0.00600000       0.00600000       0.00600000
           0.00600000       0.00600000       0.00600000       0.00600000       0.00600000       0.00600000       0.00600000       0.00600000       0.00600000       0.00600000       0.00600000       0.00600000       0.00600000       0.00600000       0.00600000       0.00600000       0.00600000       0.00600000       0.00600000       0.00600000
           0.00600000       0.00600000       0.00600000       0.00600000       0.00600000       0.00600000       0.00600000       0.00600000       0.00600000       0.00600000       0.00600000       0.00600000       0.00600000       0.00600000       0.00600000       0.00600000       0.00600000       0.00600000       0.00600000       0.00600000
           0.00600000       0.00600000       0.00600000       0.00600000       0.00600000       0.00600000       0.00600000       0.00600000       0.00600000       0.00600000       0.00600000       0.00600000       0.00600000       0.00600000       0.00600000       0.00600000       0.00600000       0.00600000       0.00123296       0.00122076
           0.00600000       0.00600000       0.00600000       0.00600000       0.00600000       0.00600000       0.00600000       0.00600000       0.00600000       0.00600000       0.00600000       0.00600000       0.00600000       0.00600000       0.00600000       0.00600000       0.00600000       0.00600000       0.00600000       0.00600000
           0.00600000       0.00600000       0.00600000       0.00600000       0.00600000       0.00600000       0.00600000       0.00600000       0.00600000       0.00600000       0.00600000       0.00600000       0.00600000       0.00600000       0.00600000       0.00600000       0.00600000       0.00600000       0.00600000       0.00600000
           0.00600000       0.00600000       0.00600000
           0.00600000       0.00600000       0.00600000       0.00600000       0.00600000       0.00600000       0.00600000       0.00600000       0.00600000       0.00600000       0.00600000       0.00600000       0.00600000       0.00600000       0.00600000       0.00600000       0.00600000       0.00600000       0.00600000       0.00600000
           0.00600000       0.00600000       0.00600000       0.00600000       0.00600000       0.00600000       0.00600000       0.00600000       0.00600000       0.00600000       0.00600000       0.00600000       0.00600000       0.00600000       0.00600000       0.00600000       0.00600000       0.00600000       0.00600000       0.00600000
           0.00600000       0.00600000       0.00600000       0.00600000       0.00600000       0.00600000       0.00600000       0.00600000       0.00600000       0.00600000       0.00600000       0.00600000       0.00600000       0.00600000       0.00600000       0.00600000       0.00600000       0.00600000       0.00600000       0.00600000
           0.00600000       0.00600000       0.00600000       0.00600000       0.00600000       0.00600000       0.00600000       0.00600000       0.00600000       0.00600000       0.00600000       0.00600000       0.00600000       0.00600000       0.00600000       0.00600000       0.00600000       0.00600000       0.00600000       0.00600000
           0.00600000       0.00600000       0.00600000       0.00600000       0.00600000       0.00600000       0.00600000       0.00600000       0.00600000       0.00600000       0.00600000       0.00600000       0.00600000       0.00600000       0.00600000       0.00600000       0.00600000       0.00600000       0.00600000       0.00600000
           0.00600000       0.00600000       0.00600000       0.00600000       0.00600000       0.00600000       0.00600000       0.00600000       0.00600000       0.00600000       0.00600000       0.00600000       0.00600000       0.00600000       0.00600000       0.00600000       0.00600000       0.00600000       0.00600000       0.00600000
           0.00600000       0.00600000       0.00600000       0.00600000       0.00600000       0.00600000       0.00600000       0.00600000       0.00600000       0.00600000       0.00600000       0.00600000       0.00600000       0.00600000       0.00600000       0.00600000       0.00600000       0.00126266       0.00124341       0.00122808
           0.00600000       0.00600000       0.00600000       0.00600000       0.00600000       0.00600000       0.00600000       0.00600000       0.00600000       0.00600000       0.00600000       0.00600000       0.00600000       0.00600000       0.00600000       0.00600000       0.00600000       0.00600000       0.00600000       0.00600000
           0.00600000       0.00600000       0.00600000       0.00600000       0.00600000       0.00600000       0.00600000       0.00600000       0.00600000       0.00600000       0.00600000       0.00600000       0.00600000       0.00600000       0.00600000       0.00600000       0.00600000       0.00600000       0.00600000       0.00600000
           0.00600000       0.00600000       0.00600000
           0.00600000       0.00600000       0.00600000       0.00600000       0.00600000       0.00600000       0.00600000       0.00600000       0.00600000       0.00600000       0.00600000       0.00600000       0.00600000       0.00600000       0.00600000       0.00600000       0.00600000       0.00600000       0.00600000       0.00600000
           0.00600000       0.00600000       0.00600000       0.00600000       0.00600000       0.00600000       0.00600000       0.00600000       0.00600000       0.00600000       0.00600000       0.00600000       0.00600000       0.00600000       0.00600000       0.00600000       0.00600000       0.00600000       0.00600000       0.00600000
           0.00600000       0.00600000       0.00600000       0.00600000       0.00600000       0.00600000       0.00600000       0.00600000       0.00600000       0.00600000       0.00600000       0.00600000       0.00600000       0.00600000       0.00600000       0.00600000       0.00600000       0.00600000       0.00600000       0.00600000
           0.00600000       0.00600000       0.00600000       0.00600000       0.00600000       0.00600000       0.00600000       0.00600000       0.00600000       0.00600000       0.00600000       0.00600000       0.00600000       0.00600000       0.00600000       0.00600000       0.00600000       0.00600000       0.00600000       0.00600000
           0.00600000       0.00600000       0.00600000       0.00600000       0.00600000       0.00600000       0.00600000       0.00600000       0.00600000       0.00600000       0.00600000       0.00600000       0.00600000       0.00600000       0.00600000       0.00600000       0.00600000       0.00600000       0.00600000       0.00600000
           0.00600000       0.00600000       0.00600000       0.00600000       0.00600000       0.00600000       0.00600000       0.00600000       0.00600000       0.00600000       0.00600000       0.00600000       0.00600000       0.00600000       0.00600000       0.00600000       0.00600000       0.00600000       0.00600000       0.00600000
           0.00600000       0.00600000       0.00600000       0.00600000       0.00600000       0.00600000       0.00600000       0.00600000       0.00600000       0.00600000       0.00600000       0.00600000       0.00600000       0.00600000       0.00600000       0.00600000       0.00600000       0.00127966       0.00125568       0.00143954
           0.00600000       0.00600000       0.00600000       0.00600000       0.00600000       0.00600000       0.00600000       0.00600000       0.00600000       0.00600000       0.00600000       0.00600000       0.00600000       0.00600000       0.00600000       0.00600000       0.00600000       0.00600000       0.00600000       0.00600000
           0.00600000       0.00600000       0.00600000       0.00600000       0.00600000       0.00600000       0.00600000       0.00600000       0.00600000       0.00600000       0.00600000       0.00600000       0.00600000       0.00600000       0.00600000       0.00600000       0.00600000       0.00600000       0.00600000       0.00600000
           0.00600000       0.00600000       0.00600000
           0.00600000       0.00600000       0.00600000       0.00600000       0.00600000       0.00600000       0.00600000       0.00600000       0.00600000       0.00600000       0.00600000       0.00600000       0.00600000       0.00600000       0.00600000       0.00600000       0.00600000       0.00600000       0.00600000       0.00600000
           0.00600000       0.00600000       0.00600000       0.00600000       0.00600000       0.00600000       0.00600000       0.00600000       0.00600000       0.00600000       0.00600000       0.00600000       0.00600000       0.00600000       0.00600000       0.00600000       0.00600000       0.00600000       0.00600000       0.00600000
           0.00600000       0.00600000       0.00600000       0.00600000       0.00600000       0.00600000       0.00600000       0.00600000       0.00600000       0.00600000       0.00600000       0.00600000       0.00600000       0.00600000       0.00600000       0.00600000       0.00600000       0.00600000       0.00600000       0.00600000
           0.00600000       0.00600000       0.00600000       0.00600000       0.00600000       0.00600000       0.00600000       0.00600000       0.00600000       0.00600000       0.00600000       0.00600000       0.00600000       0.00600000       0.00600000       0.00600000       0.00600000       0.00600000       0.00600000       0.00600000