BEGIN options
  SAVE_FLOWS
END options

BEGIN dimensions
  MAXBOUND  9495
END dimensions

BEGIN period  1
  2 12 137  2.48680279E-09
  5 13 125  2.75424046E-09
  4 13 126  2.73513770E-09
  4 13 127  2.71894193E-09
  5 14 123  2.81742513E-09
  4 14 124  2.73160775E-09
  4 14 125  2.67085782E-09
  4 14 126  2.65583273E-09
  4 14 127  2.64331207E-09
  4 14 128  2.63521673E-09
  4 14 129  2.62723291E-09
  4 15 124  2.68900400E-09
  4 15 125  2.63490851E-09
  4 15 126  2.62168481E-09
  4 15 127  2.61080731E-09
  4 15 128  2.60340411E-09
  4 15 129  2.59534941E-09
  4 15 130  2.52031760E-09
  4 15 131  2.51509053E-09
  4 15 132  2.50857134E-09
  4 16 124  2.66152962E-09
  4 16 125  2.61042361E-09
  4 16 126  2.59853292E-09
  4 16 127  2.58885199E-09
  4 16 128  2.58186274E-09
  4 16 129  2.57386537E-09
  4 16 130  2.52543580E-09
  4 16 131  2.51956811E-09
  4 16 132  2.51251813E-09
  4 16 133  2.50469616E-09
  4 17 124  2.63654563E-09
  4 17 125  2.58800331E-09
  4 17 126  2.57772773E-09
  4 17 127  2.56943207E-09
  4 17 128  2.56330576E-09
  4 17 129  2.55563524E-09
  4 17 130  2.52932428E-09
  4 17 131  2.52301387E-09
  4 17 132  2.51562955E-09
  4 17 133  2.50766799E-09
  4 17 134  2.50237415E-09
  4 18 124  2.60508212E-09
  4 18 125  2.56227999E-09
  4 18 126  2.55483059E-09
  4 18 127  2.54875388E-09
  4 18 128  2.54410817E-09
  4 18 129  2.53749728E-09
  4 18 130  2.53068826E-09
  4 18 131  2.52421479E-09
  4 18 132  2.51726836E-09
  4 18 133  2.50981557E-09
  4 18 134  2.50474334E-09
  4 19 125  2.55807604E-09
  4 19 126  2.55147749E-09
  4 19 127  2.54522369E-09
  4 19 128  2.54045193E-09
  4 19 129  2.53372371E-09
  4 19 130  2.52673252E-09
  4 19 131  2.52192859E-09
  4 19 132  2.51702087E-09
  4 19 133  2.51219637E-09
  4 19 134  2.50732010E-09
  4 20 125  2.54727426E-09
  4 20 126  2.54195260E-09
  4 20 127  2.53674489E-09
  4 20 128  2.53215869E-09
  4 20 129  2.52864931E-09
  4 20 130  2.52346216E-09
  4 20 131  2.51931433E-09
  4 20 132  2.51517811E-09
  4 20 133  2.51130124E-09
  4 20 134  2.50773887E-09
  4 21 128  2.52728798E-09
  4 21 129  2.52417657E-09
  4 21 130  2.52036816E-09
  4 21 131  2.51716457E-09
  4 21 132  2.51405509E-09
  4 21 133  2.51136293E-09
  4 21 134  2.50858295E-09
  4 22 129  2.51951851E-09
  4 22 130  2.51709175E-09
  4 22 131  2.51471313E-09
  4 22 132  2.51246757E-09
  2 22 133  2.51073150E-09
  2 22 134  2.50909439E-09
  4 23 127  2.52270372E-09
  4 23 128  2.51838364E-09
  4 23 129  2.51651693E-09
  4 23 130  2.51556761E-09
  4 23 131  2.51400549E-09
  2 23 132  2.51259409E-09
  2 23 133  2.51110818E-09
  2 23 134  2.50984218E-09
  4 24 128  2.51588502E-09
  2 24 132  2.51177953E-09
  2 24 133  2.51081521E-09
  2 24 134  2.50944736E-09
  2 25 133  2.50874117E-09
  2 25 134  2.50774637E-09
  2 26 133  2.50658537E-09
  2 27 132  2.50354459E-09
  2 27 133  2.50346911E-09
  2 28 132  2.50139169E-09
  2 28 133  2.50115194E-09
  2 29 133  2.49620769E-09
  2 30 132  2.49240315E-09
  2 30 133  2.49263661E-09
  2 31 132  2.49076289E-09
  2 31 133  2.49091506E-09
  2 32 131  2.48984478E-09
  2 32 132  2.48994590E-09
  2 32 133  2.49005066E-09
  2 33 131  2.48884151E-09
  2 33 132  2.48890320E-09
  2 34 130  2.48798267E-09
  2 34 131  2.48801557E-09
  2 34 132  2.48804896E-09
  2 35 129  2.48772018E-09
  2 35 130  2.48774340E-09
  2 35 131  2.48776687E-09
  2 35 132  2.48779082E-09
  2 36 129  2.48747922E-09
  2 36 130  2.48749470E-09
  2 36 131  2.48751091E-09
  2 36 132  2.48752736E-09
  2 37 116  3.04825472E-09
  2 37 128  2.48732027E-09
  2 37 129  2.48733164E-09
  2 37 130  2.48734326E-09
  2 37 131  2.48736721E-09
  2 37 132  2.48737979E-09
  2 38 115  3.01218009E-09
  2 38 128  2.48716665E-09
  2 38 129  2.48717463E-09
  2 38 130  2.48718238E-09
  2 38 131  2.48719883E-09
  2 38 132  2.48720754E-09
  2 39 113  3.09706533E-09
  2 39 127  2.49764449E-09
  2 39 128  2.49786561E-09
  2 39 129  2.49809157E-09
  2 39 130  2.48780461E-09
  2 39 131  2.48784719E-09
  2 40 111  3.12090380E-09
  2 40 127  2.49805963E-09
  2 40 128  2.49828487E-09
  2 40 129  2.49851446E-09
  2 40 130  2.48845467E-09
  2 40 131  2.48852337E-09
  2 41 108  3.13063094E-09
  2 41 109  3.12920333E-09
  2 41 110  3.16694749E-09
  2 41 127  2.49898331E-09
  2 41 128  2.49923225E-09
  2 41 129  2.49948579E-09
  2 41 130  2.48925665E-09
  2 41 131  2.48936141E-09
  4 42 106  3.22714026E-09
  2 42 107  3.22873456E-09
  2 42 108  3.19707799E-09
  2 42 125  2.50335807E-09
  2 42 128  2.50012786E-09
  2 42 129  2.50039955E-09
  2 42 130  2.49020863E-09
  2 42 131  2.49000130E-09
  4 43 103  3.29734346E-09
  4 43 104  3.30208498E-09
  4 43 105  3.30637192E-09
  4 43 106  3.31253258E-09
  2 43 107  3.32292792E-09
  2 43 108  3.30291818E-09
  2 43 128  2.50047720E-09
  2 43 129  2.50075058E-09
  2 43 130  2.49078200E-09
  2 43 131  2.49068354E-09
  2 44 99  3.40291632E-09
  2 44 101  3.39630544E-09
  2 44 102  3.36656299E-09
  4 44 103  3.36032129E-09
  4 44 104  3.35208539E-09
  4 44 105  3.35985752E-09
  2 44 106  3.34981781E-09
  2 44 107  3.34153497E-09
  2 44 124  2.51067828E-09
  2 44 129  2.49158568E-09
  2 44 130  2.49127480E-09
  2 44 131  2.49120344E-09
  2 45 98  3.46860276E-09
  2 45 99  3.45769454E-09
  2 45 100  3.45103454E-09
  2 45 101  3.43218992E-09
  2 45 102  3.39425052E-09
  2 45 103  3.37825917E-09
  2 45 104  3.37104226E-09
  2 45 105  3.36262129E-09
  2 45 106  3.35231135E-09
  2 45 127  2.49142117E-09
  2 45 129  2.49152617E-09
  2 45 130  2.49119086E-09
  2 45 131  2.49110812E-09
  2 46 97  3.56003937E-09
  2 46 98  3.54098887E-09
  2 46 99  3.51270862E-09
  2 46 100  3.49241994E-09
  2 46 101  3.46371367E-09
  2 46 102  3.42124395E-09
  2 46 103  3.38490683E-09
  2 46 104  3.37709502E-09
  2 46 105  3.36841349E-09
  2 46 106  3.36194365E-09
  2 46 127  2.50307695E-09
  2 46 129  2.49155786E-09
  2 46 130  2.49120706E-09
  2 47 97  3.62944228E-09
  2 47 98  3.59547023E-09
  2 47 99  3.55623798E-09
  2 47 100  3.52654150E-09
  2 47 101  3.49078307E-09
  2 47 102  3.44486638E-09
  2 47 103  3.39517226E-09
  2 47 104  3.38990673E-09
  2 47 105  3.38419678E-09
  2 47 106  3.37807168E-09
  2 47 126  2.51469281E-09
  2 47 127  2.51534141E-09
  2 47 129  2.49224130E-09
  2 47 130  2.49191664E-09
  2 48 96  3.73859323E-09
  2 48 97  3.67592459E-09
  2 48 98  3.61260734E-09
  2 48 99  3.56808367E-09
  2 48 100  3.53290973E-09
  2 48 101  3.49549749E-09
  2 48 102  3.45294794E-09
  2 48 103  3.40733971E-09
  2 48 104  3.40125574E-09
  2 48 105  3.39538080E-09
  2 48 125  2.51766391E-09
  2 48 126  2.51649395E-09
  2 48 127  2.51720110E-09
  2 48 128  2.51792470E-09
  2 48 129  2.49444090E-09
  2 48 130  2.49422050E-09
  2 49 96  3.75672151E-09
  2 49 97  3.69210439E-09
  2 49 98  3.63028176E-09
  2 49 99  3.58399300E-09
  2 49 100  3.54588449E-09
  2 49 101  3.50543510E-09
  2 49 102  3.46372359E-09
  2 49 103  3.41946023E-09
  2 49 104  3.41229098E-09
  2 49 129  2.49375649E-09
  2 49 130  2.49350730E-09
  2 50 95  3.84333725E-09
  2 50 96  3.77603160E-09
  2 50 97  3.71217994E-09
  2 50 98  3.64936372E-09
  2 50 99  3.60014909E-09
  2 50 100  3.55823944E-09
  2 50 101  3.51690508E-09
  2 50 102  3.47470318E-09
  2 50 103  3.42925317E-09
  2 50 104  3.42055954E-09
  2 50 107  3.39979983E-09
  2 50 108  3.39532419E-09
  2 50 129  2.49287781E-09
  2 50 130  2.49301909E-09
  2 51 92  4.06699904E-09
  2 51 93  3.97537542E-09
  2 51 94  3.93326013E-09
  2 51 95  3.85893377E-09
  2 51 96  3.79293210E-09
  2 51 97  3.72880174E-09
  2 51 98  3.66545014E-09
  2 51 99  3.61492669E-09
  2 51 100  3.57123912E-09
  2 51 101  3.52839853E-09
  2 51 102  3.48374833E-09
  2 51 103  3.43647105E-09
  2 51 104  3.42629901E-09
  2 51 105  3.41846857E-09
  2 51 106  3.41099812E-09
  2 51 107  3.40432022E-09
  2 51 108  3.39946790E-09
  2 51 123  2.54017178E-09
  2 51 128  2.50514082E-09
  2 51 129  2.49317078E-09
  2 51 130  2.49331860E-09
  2 52 86  3.89389820E-09
  2 52 87  3.91557215E-09
  2 52 88  3.92700705E-09
  2 52 91  3.94551516E-09
  2 52 92  3.93860549E-09
  2 52 93  3.87762235E-09
  2 52 94  3.85312971E-09
  2 52 95  3.79393392E-09
  2 52 96  3.73927159E-09
  2 52 97  3.68578406E-09
  2 52 98  3.63065699E-09
  2 52 99  3.58690531E-09
  2 52 100  3.54843101E-09
  2 52 101  3.51010066E-09
  2 52 102  3.46834487E-09
  2 52 103  3.42556887E-09
  2 52 104  3.41024960E-09
  2 52 105  3.39583828E-09
  2 52 106  3.38660225E-09
  2 52 107  3.37769089E-09
  2 52 108  3.36964732E-09
  2 52 109  3.36337029E-09
  2 52 123  2.51628589E-09
  2 52 127  2.49397204E-09
  2 52 128  2.49412131E-09
  2 52 129  2.49279725E-09
  2 52 130  2.49292765E-09
  2 53 87  3.79520041E-09
  2 53 88  3.80552390E-09
  2 53 89  3.83909047E-09
  2 53 90  3.84357410E-09
  2 53 91  3.84262575E-09
  2 53 92  3.84159199E-09
  2 53 93  3.80109446E-09
  2 53 94  3.77143984E-09
  2 53 95  3.72659344E-09
  2 53 96  3.68362245E-09
  2 53 97  3.63946917E-09
  2 53 98  3.59195262E-09
  2 53 99  3.55450119E-09
  2 53 100  3.52095300E-09
  2 53 101  3.48681208E-09
  2 53 102  3.44802328E-09
  2 53 103  3.41049854E-09
  2 53 104  3.39086234E-09
  2 53 105  3.37115670E-09
  2 53 106  3.36073571E-09
  2 53 107  3.35024795E-09
  2 53 108  3.33991842E-09
  2 53 109  3.33004878E-09
  2 53 127  2.49326538E-09
  2 53 128  2.49340303E-09
  2 53 129  2.49200179E-09
  2 53 130  2.49211743E-09
  2 54 88  3.73370753E-09
  2 54 89  3.73828042E-09
  2 54 90  3.74152974E-09
  2 54 91  3.74198916E-09
  2 54 92  3.74238350E-09
  2 54 93  3.71219687E-09
  2 54 94  3.69333265E-09
  2 54 95  3.65967197E-09
  2 54 96  3.62628877E-09
  2 54 97  3.59003245E-09
  2 54 98  3.54910671E-09
  2 54 99  3.51724329E-09
  2 54 100  3.48797865E-09
  2 54 101  3.45675683E-09
  2 54 102  3.42370483E-09
  2 54 103  3.39238865E-09
  2 54 104  3.36927959E-09
  2 54 105  3.34558143E-09
  2 54 106  3.32958162E-09
  2 54 107  3.31761425E-09
  2 54 108  3.30518721E-09
  2 54 109  3.29215027E-09
  2 54 126  2.49112529E-09
  2 54 127  2.49122376E-09
  2 54 128  2.49132416E-09
  2 54 129  2.48967446E-09
  2 54 130  2.48974293E-09
  2 55 80  3.55553421E-09
  2 55 82  3.57451988E-09
  2 55 83  3.56936999E-09
  2 55 84  3.57563637E-09
  2 55 85  3.58157930E-09
  2 55 88  3.63245620E-09
  2 55 89  3.64126958E-09
  2 55 90  3.64916050E-09
  2 55 91  3.65360421E-09
  2 55 92  3.65214200E-09
  2 55 93  3.62809136E-09
  2 55 94  3.61742168E-09
  2 55 95  3.59278945E-09
  2 55 96  3.56746482E-09
  2 55 97  3.53806252E-09
  2 55 98  3.50306785E-09
  2 55 99  3.47632118E-09
  2 55 100  3.45054028E-09
  2 55 101  3.42265148E-09
  2 55 102  3.39621641E-09
  2 55 103  3.37166982E-09
  2 55 104  3.34924759E-09
  2 55 105  3.32319404E-09
  2 55 106  3.30381210E-09
  2 55 107  3.29191947E-09
  2 55 108  3.27943631E-09
  2 55 109  3.26609720E-09
  2 55 125  2.49124868E-09
  2 55 126  2.49134980E-09
  2 55 127  2.49145310E-09
  2 55 128  2.49155883E-09
  2 55 129  2.48992582E-09
  2 55 130  2.49000009E-09
  2 56 78  3.46401728E-09
  2 56 79  3.45742987E-09
  2 56 80  3.45494238E-09
  2 56 81  3.45994735E-09
  2 56 82  3.46943015E-09
  2 56 83  3.46333747E-09
  2 56 84  3.47355911E-09
  2 56 85  3.48343697E-09
  2 56 86  3.49730347E-09
  2 56 87  3.51678751E-09
  2 56 88  3.53137132E-09
  2 56 89  3.56075088E-09
  2 56 90  3.56940918E-09
  2 56 91  3.57530106E-09
  2 56 92  3.57588169E-09
  2 56 93  3.56037202E-09
  2 56 94  3.54119354E-09
  2 56 95  3.52351572E-09
  2 56 96  3.50462417E-09
  2 56 97  3.48079319E-09
  2 56 98  3.45067141E-09
  2 56 99  3.42820563E-09
  2 56 100  3.40599436E-09
  2 56 101  3.38518480E-09
  2 56 102  3.36578472E-09
  2 56 103  3.34790272E-09
  2 56 104  3.32642085E-09
  2 56 105  3.29850447E-09
  2 56 106  3.27652182E-09
  2 56 107  3.26066692E-09
  2 56 108  3.24769192E-09
  2 56 109  3.23340446E-09
  2 56 127  2.51515900E-09
  2 56 128  2.50818789E-09
  2 56 129  2.49951361E-09
  2 56 130  2.49116666E-09
  2 57 77  3.37668980E-09
  2 57 78  3.38027805E-09
  2 57 79  3.38323415E-09
  2 57 80  3.38654201E-09
  2 57 81  3.39426890E-09
  2 57 82  3.40670610E-09
  2 57 83  3.42498220E-09
  2 57 84  3.43677684E-09
  2 57 85  3.44824464E-09
  2 57 86  3.46319933E-09
  2 57 87  3.47797136E-09
  2 57 88  3.48914087E-09
  2 57 89  3.49877559E-09
  2 57 90  3.50609968E-09
  2 57 91  3.51132577E-09
  2 57 92  3.51181374E-09
  2 57 93  3.50203120E-09
  2 57 94  3.48752456E-09
  2 57 95  3.47472011E-09
  2 57 96  3.46050064E-09
  2 57 97  3.44083105E-09
  2 57 98  3.41979118E-09
  2 57 99  3.40015618E-09
  2 57 100  3.38040579E-09
  2 57 101  3.36144891E-09
  2 57 102  3.34341208E-09
  2 57 103  3.32647093E-09
  2 57 104  3.30607362E-09
  2 57 105  3.27680124E-09
  2 57 106  3.25303099E-09
  2 57 107  3.23457103E-09
  2 57 108  3.21801842E-09
  2 57 109  3.20341138E-09
  2 57 110  3.19122385E-09
  2 57 125  2.55082405E-09
  2 57 126  2.54569787E-09
  2 57 127  2.54025767E-09
  2 57 128  2.52731460E-09
  2 57 129  2.51285683E-09
  2 57 130  2.49641550E-09
  2 58 75  3.40948390E-09
  2 58 76  3.40627233E-09
  2 58 77  3.37788806E-09
  2 58 78  3.38171558E-09
  2 58 79  3.38508489E-09
  2 58 80  3.38888313E-09
  2 58 81  3.39068476E-09
  2 58 82  3.39716113E-09
  2 58 83  3.41000767E-09
  2 58 84  3.42232923E-09
  2 58 85  3.43436169E-09
  2 58 86  3.44488162E-09
  2 58 87  3.45589218E-09
  2 58 88  3.46407462E-09
  2 58 89  3.47103122E-09
  2 58 90  3.47627643E-09
  2 58 91  3.47988500E-09
  2 58 92  3.48260789E-09
  2 58 93  3.47528453E-09
  2 58 94  3.46307934E-09
  2 58 95  3.44892639E-09
  2 58 96  3.43325270E-09
  2 58 97  3.41617317E-09
  2 58 98  3.39787917E-09
  2 58 99  3.38052748E-09
  2 58 100  3.36285426E-09
  2 58 101  3.34549966E-09
  2 58 102  3.32867779E-09
  2 58 103  3.31258992E-09
  2 58 104  3.29267936E-09
  2 58 105  3.26386688E-09
  2 58 106  3.23772697E-09
  2 58 107  3.21635760E-09
  2 58 108  3.19619205E-09
  2 58 109  3.17681205E-09
  2 58 110  3.15875707E-09
  2 58 127  2.56076263E-09
  2 58 128  2.54326820E-09
  2 58 129  2.52311161E-09
  2 59 74  3.40746430E-09
  2 59 75  3.40631612E-09
  2 59 76  3.40362686E-09
  2 59 77  3.37918067E-09
  2 59 78  3.38300964E-09
  2 59 79  3.38655048E-09
  2 59 80  3.39013946E-09
  2 59 81  3.39211406E-09
  2 59 82  3.39452825E-09
  2 59 83  3.40328212E-09
  2 59 84  3.41159520E-09
  2 59 85  3.41994577E-09
  2 59 86  3.42702745E-09
  2 59 87  3.43499892E-09
  2 59 88  3.44057461E-09
  2 59 89  3.44519710E-09
  2 59 90  3.44847060E-09
  2 59 91  3.45038981E-09
  2 59 92  3.45192846E-09
  2 59 93  3.44623157E-09
  2 59 94  3.43536448E-09
  2 59 95  3.42293139E-09
  2 59 96  3.40913988E-09
  2 59 97  3.39411649E-09
  2 59 98  3.37805136E-09
  2 59 99  3.36265758E-09
  2 59 100  3.34672744E-09
  2 59 101  3.33073247E-09
  2 59 102  3.31495063E-09
  2 59 103  3.29958878E-09
  2 59 104  3.28007209E-09
  2 59 105  3.25156734E-09
  2 59 106  3.22330331E-09
  2 59 107  3.19946459E-09
  2 59 108  3.17640585E-09
  2 59 109  3.15348549E-09
  2 59 110  3.13143341E-09
  2 59 111  3.10579355E-09
  2 59 127  2.57862624E-09
  2 59 128  2.55789000E-09
  2 59 129  2.53326551E-09
  2 60 75  3.40445401E-09
  2 60 76  3.40205845E-09
  2 60 77  3.38007774E-09
  2 60 78  3.38370470E-09
  2 60 79  3.38710086E-09
  2 60 80  3.39084347E-09
  2 60 81  3.39281976E-09
  2 60 82  3.39528330E-09
  2 60 83  3.40087350E-09
  2 60 84  3.40620967E-09
  2 60 85  3.41171785E-09
  2 60 86  3.41608559E-09
  2 60 87  3.42150184E-09
  2 60 88  3.42482858E-09
  2 60 89  3.42732889E-09
  2 60 90  3.42870787E-09
  2 60 91  3.42891302E-09
  2 60 92  3.42909205E-09
  2 60 93  3.42223295E-09
  2 60 94  3.41244291E-09
  2 60 95  3.40122260E-09
  2 60 96  3.38879556E-09
  2 60 97  3.37529291E-09
  2 60 98  3.36089417E-09
  2 60 99  3.34701751E-09
  2 60 100  3.33250264E-09
  2 60 101  3.31764787E-09
  2 60 102  3.30274399E-09
  2 60 103  3.28486683E-09
  2 60 104  3.26563827E-09
  2 60 105  3.23719037E-09
  2 60 106  3.20887723E-09
  2 60 107  3.18281352E-09
  2 60 108  3.15732051E-09
  2 60 109  3.13168816E-09
  2 60 110  3.10241916E-09
  2 60 111  3.07378522E-09
  2 60 128  2.57131571E-09
  2 60 129  2.54244468E-09
  2 61 71  3.42908092E-09
  2 61 72  3.40188838E-09
  2 61 74  3.39493299E-09
  2 61 75  3.39327023E-09
  2 61 76  3.39220067E-09
  2 61 77  3.37743929E-09
  2 61 78  3.37894963E-09
  2 61 79  3.38107544E-09
  2 61 80  3.38324842E-09
  2 61 81  3.38538173E-09
  2 61 82  3.38802841E-09
  2 61 83  3.39181940E-09
  2 61 84  3.39531741E-09
  2 61 85  3.39898502E-09
  2 61 86  3.40270585E-09
  2 61 87  3.40633233E-09
  2 61 88  3.40931867E-09
  2 61 89  3.41142294E-09
  2 61 90  3.41255468E-09
  2 61 91  3.41265532E-09
  2 61 92  3.41157004E-09
  2 61 93  3.40357896E-09
  2 61 94  3.39441043E-09
  2 61 95  3.38396501E-09
  2 61 96  3.37248294E-09
  2 61 97  3.36006412E-09
  2 61 98  3.34681066E-09
  2 61 99  3.33398203E-09
  2 61 100  3.32049172E-09
  2 61 101  3.30647885E-09
  2 61 102  3.29219237E-09
  2 61 103  3.27156474E-09
  2 61 104  3.24928186E-09
  2 61 105  3.22062421E-09
  2 61 106  3.19194382E-09
  2 61 107  3.16369310E-09
  2 61 108  3.13594026E-09
  2 61 109  3.10799557E-09
  2 61 110  3.07682987E-09
  2 61 111  3.04663163E-09
  2 61 112  3.01264096E-09
  2 61 122  2.75314598E-09
  2 61 123  2.70932970E-09
  2 61 124  2.66552479E-09
  2 61 127  2.60595837E-09
  2 61 128  2.58133969E-09
  2 61 129  2.55108412E-09
  2 62 71  3.40968373E-09
  2 62 72  3.38794761E-09
  2 62 73  3.38528351E-09
  2 62 74  3.38359631E-09
  2 62 75  3.37787185E-09
  2 62 76  3.37769500E-09
  2 62 77  3.37026495E-09
  2 62 78  3.37120605E-09
  2 62 79  3.37286300E-09
  2 62 80  3.37438835E-09
  2 62 81  3.37574241E-09
  2 62 82  3.37751815E-09
  2 62 83  3.38036055E-09
  2 62 84  3.38329633E-09
  2 62 85  3.38626743E-09
  2 62 86  3.39243752E-09
  2 62 87  3.39531693E-09
  2 62 88  3.39767620E-09
  2 62 89  3.39915703E-09
  2 62 90  3.39977999E-09
  2 62 91  3.39948605E-09
  2 62 92  3.39816053E-09
  2 62 93  3.39020454E-09
  2 62 94  3.38125156E-09
  2 62 95  3.37132629E-09
  2 62 96  3.36049137E-09
  2 62 97  3.34881841E-09
  2 62 98  3.33630960E-09
  2 62 99  3.32416320E-09
  2 62 100  3.31126996E-09
  2 62 101  3.29773926E-09
  2 62 102  3.28377042E-09
  2 62 103  3.26011533E-09
  2 62 104  3.23452168E-09
  2 62 105  3.20541357E-09
  2 62 106  3.17616538E-09
  2 62 107  3.14716686E-09
  2 62 108  3.11760803E-09
  2 62 109  3.08807098E-09
  2 62 110  3.05591121E-09
  2 62 111  3.02519525E-09
  2 62 112  2.99174818E-09
  2 62 113  2.95367161E-09
  2 62 118  2.86807172E-09
  2 62 119  2.86363866E-09
  2 62 120  2.82966758E-09
  2 62 121  2.79612665E-09
  2 62 122  2.75161289E-09
  2 62 123  2.71241499E-09
  2 62 124  2.67142635E-09
  2 62 127  2.61225935E-09
  2 62 129  2.55459375E-09
  2 63 71  3.36672968E-09
  2 63 72  3.35448989E-09
  2 63 73  3.35688279E-09
  2 63 74  3.35881191E-09
  2 63 75  3.35605709E-09
  2 63 76  3.35397314E-09
  2 63 77  3.35467521E-09
  2 63 78  3.35601379E-09
  2 63 79  3.36515982E-09
  2 63 80  3.36632736E-09
  2 63 81  3.36932894E-09
  2 63 82  3.37054825E-09
  2 63 83  3.37275873E-09
  2 63 84  3.37500938E-09
  2 63 85  3.37718260E-09
  2 63 86  3.38252023E-09
  2 63 87  3.38781721E-09
  2 63 88  3.38948940E-09
  2 63 89  3.39045590E-09
  2 63 90  3.39066299E-09
  2 63 91  3.39005454E-09
  2 63 92  3.38855750E-09
  2 63 93  3.38057731E-09
  2 63 94  3.37173998E-09
  2 63 95  3.36206002E-09
  2 63 96  3.35157613E-09
  2 63 97  3.34033840E-09
  2 63 98  3.32822998E-09
  2 63 99  3.31642929E-09
  2 63 100  3.30383895E-09
  2 63 101  3.29054267E-09
  2 63 102  3.27669213E-09
  2 63 103  3.24985450E-09
  2 63 104  3.22085428E-09
  2 63 105  3.19120740E-09
  2 63 106  3.16110182E-09
  2 63 107  3.13111406E-09
  2 63 108  3.10050770E-09
  2 63 109  3.06954207E-09
  2 63 110  3.04025638E-09
  2 63 111  3.00945043E-09
  2 63 112  2.97683728E-09
  2 63 113  2.94111877E-09
  2 63 114  2.92120265E-09
  2 63 115  2.90525341E-09
  2 63 116  2.88910747E-09
  2 63 117  2.87459043E-09
  2 63 118  2.86545867E-09
  2 63 119  2.85811886E-09
  2 63 120  2.82694494E-09
  2 63 121  2.79557094E-09
  2 63 122  2.75526695E-09
  2 63 123  2.71725860E-09
  2 63 124  2.67763467E-09
  2 63 125  2.65877529E-09
  2 63 126  2.64216727E-09
  2 63 127  2.62281001E-09
  2 63 128  2.59743167E-09
  2 63 129  2.56596720E-09
  2 64 72  3.32147201E-09
  2 64 73  3.32811216E-09
  2 64 74  3.33327584E-09
  2 64 75  3.33314157E-09
  2 64 76  3.33313552E-09
  2 64 77  3.33489312E-09
  2 64 78  3.34022784E-09
  2 64 79  3.35279012E-09
  2 64 80  3.35698174E-09
  2 64 81  3.36325441E-09
  2 64 82  3.36662323E-09
  2 64 83  3.36854074E-09
  2 64 84  3.37043309E-09
  2 64 85  3.37212827E-09
  2 64 86  3.37694503E-09
  2 64 87  3.38164542E-09
  2 64 88  3.38273627E-09
  2 64 89  3.38323439E-09
  2 64 90  3.38309287E-09
  2 64 91  3.38226112E-09
  2 64 92  3.38063465E-09
  2 64 93  3.37262664E-09
  2 64 94  3.36386648E-09
  2 64 95  3.35435925E-09
  2 64 96  3.34412721E-09
  2 64 97  3.33320544E-09
  2 64 98  3.32136241E-09
  2 64 99  3.30975938E-09
  2 64 100  3.29733355E-09
  2 64 101  3.28413210E-09
  2 64 102  3.27026100E-09
  2 64 103  3.24326466E-09
  2 64 104  3.21395599E-09
  2 64 105  3.18385719E-09
  2 64 106  3.15297962E-09
  2 64 107  3.12225810E-09
  2 64 108  3.09100337E-09
  2 64 109  3.05973752E-09
  2 64 110  3.03056166E-09
  2 64 111  3.00038302E-09
  2 64 112  2.96909805E-09
  2 64 113  2.93582784E-09
  2 64 114  2.91782996E-09
  2 64 115  2.90373556E-09
  2 64 116  2.88974930E-09
  2 64 117  2.87426141E-09
  2 64 118  2.86336528E-09
  2 64 119  2.85398555E-09
  2 64 120  2.82372828E-09
  2 64 121  2.79327772E-09
  2 64 122  2.75714599E-09
  2 64 123  2.72207850E-09
  2 64 124  2.68458038E-09
  2 64 125  2.66592760E-09
  2 64 126  2.64930773E-09
  2 64 127  2.63008861E-09
  2 64 128  2.60534461E-09
  2 64 129  2.57478518E-09
  2 65 74  3.30511414E-09
  2 65 75  3.30346445E-09
  2 65 76  3.30228481E-09
  2 65 77  3.30567566E-09
  2 65 78  3.31147294E-09
  2 65 79  3.32427085E-09
  2 65 80  3.32918607E-09
  2 65 81  3.33566462E-09
  2 65 82  3.33920280E-09
  2 65 83  3.34102257E-09
  2 65 84  3.34276710E-09
  2 65 85  3.34420729E-09
  2 65 86  3.35196708E-09
  2 65 87  3.35957132E-09
  2 65 88  3.36032855E-09
  2 65 89  3.36379802E-09
  2 65 90  3.36673089E-09
  2 65 91  3.36908508E-09
  2 65 92  3.37069921E-09
  2 65 93  3.36599689E-09
  2 65 94  3.35740777E-09
  2 65 95  3.34811174E-09
  2 65 96  3.33811873E-09
  2 65 97  3.32744977E-09
  2 65 98  3.31576496E-09
  2 65 99  3.30423256E-09
  2 65 100  3.29184568E-09
  2 65 101  3.27863625E-09
  2 65 102  3.26466790E-09
  2 65 103  3.23434604E-09
  2 65 104  3.20470351E-09
  2 65 105  3.17417747E-09
  2 65 106  3.14280226E-09
  2 65 107  3.11106876E-09
  2 65 108  3.07890560E-09
  2 65 109  3.05038391E-09
  2 65 110  3.02119596E-09
  2 65 111  2.99147626E-09
  2 65 112  2.96119577E-09
  2 65 113  2.92977024E-09
  2 65 114  2.91315932E-09
  2 65 115  2.90028327E-09
  2 65 116  2.88761648E-09
  2 65 117  2.87365224E-09
  2 65 118  2.86152035E-09
  2 65 119  2.85069148E-09
  2 65 120  2.82127418E-09
  2 65 121  2.79165560E-09
  2 65 122  2.75872432E-09
  2 65 123  2.72605844E-09
  2 65 124  2.69046524E-09
  2 65 125  2.67205778E-09
  2 65 126  2.65550396E-09
  2 65 127  2.63648853E-09
  2 65 128  2.61235298E-09
  2 65 129  2.58263642E-09
  2 66 73  3.26520087E-09
  2 66 74  3.27170821E-09
  2 66 75  3.26888492E-09
  2 66 76  3.26678887E-09
  2 66 77  3.26837857E-09
  2 66 78  3.27401231E-09
  2 66 79  3.28714457E-09
  2 66 80  3.29190230E-09
  2 66 81  3.29893607E-09
  2 66 82  3.30277641E-09
  2 66 83  3.30145283E-09
  2 66 84  3.30001845E-09
  2 66 85  3.30141968E-09
  2 66 86  3.30914924E-09
  2 66 87  3.31669299E-09
  2 66 88  3.32062792E-09
  2 66 89  3.32736921E-09
  2 66 90  3.33367236E-09
  2 66 91  3.33947860E-09
  2 66 92  3.34456946E-09
  2 66 93  3.34337748E-09
  2 66 94  3.33834130E-09
  2 66 95  3.33261054E-09
  2 66 96  3.32618522E-09
  2 66 97  3.31907500E-09
  2 66 98  3.31083450E-09
  2 66 99  3.29940952E-09
  2 66 100  3.28707441E-09
  2 66 101  3.27384635E-09
  2 66 102  3.25663812E-09
  2 66 103  3.22606635E-09
  2 66 104  3.19609746E-09
  2 66 105  3.16522232E-09
  2 66 106  3.13346825E-09
  2 66 107  3.10078108E-09
  2 66 108  3.06785584E-09
  2 66 109  3.03887208E-09
  2 66 110  3.00969840E-09
  2 66 111  2.98043909E-09
  2 66 112  2.95110646E-09
  2 66 113  2.92472873E-09
  2 66 114  2.90932817E-09
  2 66 115  2.89745345E-09
  2 66 116  2.88575969E-09
  2 66 117  2.87287178E-09
  2 66 118  2.85988444E-09
  2 66 119  2.84799932E-09
  2 66 120  2.81934893E-09
  2 66 121  2.79048226E-09
  2 66 122  2.75857893E-09
  2 66 123  2.72817747E-09
  2 66 124  2.69459033E-09
  2 66 125  2.67652398E-09
  2 66 126  2.66016032E-09
  2 66 127  2.64151044E-09
  2 66 128  2.61819187E-09
  2 66 129  2.58967430E-09
  2 67 73  3.21189550E-09
  2 67 74  3.21887920E-09
  2 67 75  3.21655235E-09
  2 67 76  3.21459202E-09
  2 67 77  3.21994948E-09
  2 67 78  3.22620328E-09
  2 67 79  3.23933433E-09
  2 67 80  3.24461800E-09
  2 67 81  3.25545413E-09
  2 67 82  3.25966220E-09
  2 67 83  3.25855079E-09
  2 67 84  3.25732979E-09
  2 67 85  3.25889747E-09
  2 67 86  3.26358335E-09
  2 67 87  3.27154370E-09
  2 67 88  3.27566878E-09
  2 67 89  3.28590929E-09
  2 67 90  3.29581836E-09
  2 67 91  3.30532027E-09
  2 67 92  3.31417211E-09
  2 67 93  3.31677815E-09
  2 67 94  3.31557408E-09
  2 67 95  3.31364907E-09
  2 67 96  3.31099489E-09
  2 67 97  3.30758494E-09
  2 67 98  3.30291116E-09
  2 67 99  3.29493122E-09
  2 67 100  3.28275239E-09
  2 67 101  3.26958675E-09
  2 67 102  3.24920662E-09
  2 67 103  3.21844470E-09
  2 67 104  3.18820388E-09
  2 67 105  3.15703165E-09
  2 67 106  3.12497469E-09
  2 67 107  3.09201390E-09
  2 67 108  3.05818870E-09
  2 67 109  3.02864827E-09
  2 67 110  2.99936306E-09
  2 67 111  2.97040881E-09
  2 67 112  2.94181141E-09
  2 67 113  2.91977142E-09
  2 67 114  2.90525873E-09
  2 67 115  2.89407035E-09
  2 67 116  2.88299520E-09
  2 67 117  2.87177247E-09
  2 67 118  2.86054176E-09
  2 67 119  2.84921137E-09
  2 67 120  2.82057550E-09
  2 67 121  2.79169358E-09
  2 67 122  2.76120068E-09
  2 67 123  2.73171976E-09
  2 67 124  2.69879114E-09
  2 67 125  2.68042602E-09
  2 67 126  2.66356132E-09
  2 67 127  2.64428316E-09
  2 67 128  2.62193593E-09
  2 67 129  2.59468097E-09
  2 68 72  3.13186549E-09
  2 68 73  3.14739935E-09
  2 68 74  3.16543787E-09
  2 68 75  3.16690322E-09
  2 68 76  3.16689935E-09
  2 68 77  3.17504163E-09
  2 68 78  3.18367574E-09
  2 68 79  3.19101265E-09
  2 68 80  3.19715565E-09
  2 68 81  3.20288689E-09
  2 68 82  3.21088546E-09
  2 68 83  3.21024871E-09
  2 68 84  3.20951519E-09
  2 68 85  3.21160447E-09
  2 68 86  3.21685911E-09
  2 68 87  3.22220714E-09
  2 68 88  3.22696777E-09
  2 68 89  3.23794155E-09
  2 68 90  3.25191958E-09
  2 68 91  3.26559811E-09
  2 68 92  3.27873762E-09
  2 68 93  3.28543802E-09
  2 68 94  3.28837694E-09
  2 68 95  3.29055646E-09
  2 68 96  3.29193350E-09
  2 68 97  3.29241978E-09
  2 68 98  3.29149610E-09
  2 68 99  3.28713755E-09
  2 68 100  3.27849497E-09
  2 68 101  3.26241339E-09
  2 68 102  3.23895982E-09
  2 68 103  3.20808782E-09
  2 68 104  3.17764113E-09
  2 68 105  3.14622020E-09
  2 68 106  3.11389156E-09
  2 68 107  3.08071859E-09
  2 68 108  3.04689025E-09
  2 68 109  3.01666686E-09
  2 68 110  2.98712448E-09
  2 68 111  2.95831442E-09
  2 68 112  2.93338704E-09
  2 68 113  2.91561802E-09
  2 68 114  2.90201595E-09
  2 68 115  2.89168568E-09
  2 68 116  2.88148872E-09
  2 68 117  2.87125668E-09
  2 68 118  2.86103432E-09
  2 68 119  2.85062350E-09
  2 68 120  2.82111451E-09
  2 68 121  2.79130674E-09
  2 68 122  2.76108891E-09
  2 68 123  2.73027739E-09
  2 68 124  2.69854317E-09
  2 68 125  2.68077004E-09
  2 68 126  2.66454475E-09
  2 68 127  2.64611237E-09
  2 68 128  2.62479768E-09
  2 68 129  2.59903129E-09
  2 69 72  3.08675998E-09
  2 69 73  3.10528309E-09
  2 69 74  3.11561093E-09
  2 69 75  3.12005222E-09
  2 69 76  3.12038245E-09
  2 69 77  3.13274707E-09
  2 69 78  3.14021606E-09
  2 69 79  3.14553990E-09
  2 69 80  3.14922444E-09
  2 69 81  3.15241666E-09
  2 69 82  3.15544147E-09
  2 69 83  3.15511027E-09
  2 69 84  3.15471714E-09
  2 69 85  3.15729438E-09
  2 69 86  3.16313860E-09
  2 69 87  3.16920055E-09
  2 69 88  3.17478712E-09
  2 69 89  3.18671216E-09
  2 69 90  3.20176919E-09
  2 69 91  3.21663025E-09
  2 69 92  3.23428798E-09
  2 69 93  3.24223212E-09
  2 69 94  3.24645374E-09
  2 69 95  3.24986902E-09
  2 69 96  3.25234610E-09
  2 69 97  3.25373452E-09
  2 69 98  3.25665360E-09
  2 69 99  3.25602604E-09
  2 69 100  3.24789780E-09
  2 69 101  3.23220838E-09
  2 69 102  3.20901634E-09
  2 69 103  3.17816950E-09
  2 69 104  3.15075487E-09
  2 69 105  3.12229681E-09
  2 69 106  3.09293564E-09
  2 69 107  3.06283708E-09
  2 69 108  3.03233450E-09
  2 69 109  2.99929992E-09
  2 69 110  2.97008124E-09
  2 69 111  2.94476194E-09
  2 69 112  2.92338314E-09
  2 69 113  2.90918399E-09
  2 69 114  2.89915541E-09
  2 69 115  2.88933367E-09
  2 69 116  2.87966218E-09
  2 69 117  2.86999770E-09
  2 69 118  2.86031459E-09
  2 69 119  2.85033415E-09
  2 69 120  2.82118685E-09
  2 69 121  2.79169625E-09
  2 69 122  2.76175228E-09
  2 69 123  2.73121050E-09
  2 69 124  2.69979949E-09
  2 69 125  2.68223466E-09
  2 69 126  2.66624428E-09
  2 69 127  2.64808818E-09
  2 69 128  2.62699703E-09
  2 69 129  2.60141911E-09
  2 70 72  3.05145734E-09
  2 70 73  3.06688765E-09
  2 70 74  3.07477833E-09
  2 70 75  3.07729461E-09
  2 70 76  3.07532944E-09
  2 70 77  3.08607001E-09
  2 70 78  3.09176641E-09
  2 70 79  3.09446970E-09
  2 70 80  3.09509580E-09
  2 70 81  3.09869615E-09
  2 70 82  3.10243319E-09
  2 70 83  3.10227449E-09
  2 70 84  3.10537937E-09
  2 70 85  3.11169099E-09
  2 70 86  3.11822615E-09
  2 70 87  3.12516703E-09
  2 70 88  3.13500085E-09
  2 70 89  3.14486734E-09
  2 70 90  3.15794541E-09
  2 70 91  3.17087856E-09
  2 70 92  3.18667926E-09
  2 70 93  3.19268968E-09
  2 70 94  3.19821311E-09
  2 70 95  3.20289874E-09