BEGIN options
  SAVE_FLOWS
END options

BEGIN dimensions
  MAXBOUND  47
END dimensions

BEGIN period  1
  2 117 6     180.00000000   1.4690900000e-03  178.00000000
  2 117 7     177.18393724   1.4690900000e-03  175.18393724
  2 116 7     175.00000000   1.4690900000e-03  173.00000000
  2 116 8     173.83246018   1.4690900000e-03  171.83246018
  2 116 9     171.91838051   1.4690900000e-03  169.91838051
  2 116 10     170.00000000   1.4690900000e-03  168.00000000
  2 116 11     165.47187242   1.4690900000e-03  163.47187242
  2 115 12     160.00000000   1.4690900000e-03  158.00000000
  2 115 13     158.20995910   1.4690900000e-03  156.20995910
  2 114 13     156.68662367   1.4690900000e-03  154.68662367
  2 114 14     155.00000000   1.4690900000e-03  153.00000000
  2 113 14     153.82564779   1.4690900000e-03  151.82564779
  2 113 15     152.30471968   1.4690900000e-03  150.30471968
  2 112 15     151.24050723   1.4690900000e-03  149.24050723
  2 112 16     150.00000000   1.4690900000e-03  148.00000000
  2 112 17     147.22620534   1.4690900000e-03  145.22620534
  2 111 17     145.00000000   1.4690900000e-03  143.00000000
  2 111 18     142.82586766   1.4690900000e-03  140.82586766
  2 110 18     141.50845673   1.4690900000e-03  139.50845673
  2 110 19     140.00000000   1.4690900000e-03  138.00000000
  2 110 20     138.03488440   1.4690900000e-03  136.03488440
  2 109 20     136.74037891   1.4690900000e-03  134.74037891
  2 109 21     135.00000000   1.4690900000e-03  133.00000000
  2 108 21     133.84853427   1.4690900000e-03  131.84853427
  2 108 22     132.61700791   1.4690900000e-03  130.61700791
  2 108 23     131.13402929   1.4690900000e-03  129.13402929
  2 107 23     130.00000000   1.4690900000e-03  128.00000000
  2 107 24     127.62103615   1.4690900000e-03  125.62103615
  2 107 25     125.00000000   1.4690900000e-03  123.00000000
  2 107 26     123.42123877   1.4690900000e-03  121.42123877
  2 106 26     122.16128682   1.4690900000e-03  120.16128682
  2 106 27     120.00000000   1.4690900000e-03  118.00000000
  2 106 28     115.00000000   1.4690900000e-03  113.00000000
  2 106 29     115.00000000   1.4690900000e-03  113.00000000
  2 106 30     113.32348991   1.4690900000e-03  111.32348991
  2 106 31     111.67151805   1.4690900000e-03  109.67151805
  2 106 32     110.00000000   1.4690900000e-03  108.00000000
  2 106 33     108.02176503   1.4690900000e-03  106.02176503
  2 105 33     106.75975264   1.4690900000e-03  104.75975264
  2 105 34     105.00000000   1.4690900000e-03  103.00000000
  2 105 35     103.35706113   1.4690900000e-03  101.35706113
  2 105 36     102.19305496   1.4690900000e-03  100.19305496
  2 104 36     101.29504168   1.4690900000e-03   99.29504168
  2 104 37     100.00000000   1.4690900000e-03   98.00000000
  2 103 37      98.27449197   1.4690900000e-03   96.27449197
  2 103 38      97.06700439   1.4690900000e-03   95.06700439
  2 102 38      95.00000000   1.4690900000e-03   93.00000000
END period  1

