BEGIN options
  SAVE_FLOWS
END options

BEGIN dimensions
  MAXBOUND  32
END dimensions

BEGIN period  1
  2 114 32       0.00937500
  2 115 33       0.00937500
  2 116 34       0.00937500
  2 117 35       0.00937500
  2 118 35       0.00937500
  2 119 36       0.00937500
  2 119 37       0.00937500
  2 120 38       0.00937500
  2 120 39       0.00937500
  2 120 40       0.00937500
  2 121 41       0.00937500
  2 121 42       0.00937500
  2 122 43       0.00937500
  2 123 44       0.00937500
  2 123 45       0.00937500
  4 113 32       0.00937500
  4 114 33       0.00937500
  4 114 34       0.00937500
  4 115 35       0.00937500
  4 116 36       0.00937500
  4 117 37       0.00937500
  4 118 37       0.00937500
  4 119 37       0.00937500
  4 120 38       0.00937500
  4 120 39       0.00937500
  4 120 40       0.00937500
  4 120 41       0.00937500
  4 120 42       0.00937500
  4 121 40       0.00937500
  4 121 43       0.00937500
  4 121 44       0.00937500
  4 122 45       0.00937500
END period  1

