BEGIN options
  DIGITS  10
  PRINT_INPUT
END options

BEGIN continuous  FILEOUT  heads_pc.csv
  3_50_94  HEAD  4 51 95
  3_57_83  HEAD  4 58 84
  3_62_126  HEAD  4 63 127
  3_63_94  HEAD  4 64 95
  3_63_99  HEAD  4 64 100
  3_64_92  HEAD  4 65 93
  3_64_96  HEAD  4 65 97
  3_66_128  HEAD  4 67 129
  3_69_104  HEAD  4 70 105
  3_69_118  HEAD  4 70 119
  3_71_72  HEAD  4 72 73
  3_75_124  HEAD  4 76 125
  3_79_66  HEAD  4 80 67
  3_79_77  HEAD  4 80 78
  3_82_115  HEAD  4 83 116
  3_83_67  HEAD  4 84 68
  3_84_94  HEAD  4 85 95
  3_84_125  HEAD  4 85 126
  3_91_101  HEAD  4 92 102
  3_95_128  HEAD  4 96 129
  3_98_43  HEAD  4 99 44
  3_98_91  HEAD  4 99 92
  3_99_118  HEAD  4 100 119
  3_101_59  HEAD  4 102 60
  3_102_22  HEAD  4 103 23
  3_102_28  HEAD  4 103 29
  3_103_32  HEAD  4 104 33
  3_104_74  HEAD  4 105 75
  3_108_42  HEAD  4 109 43
  3_109_12  HEAD  4 110 13
  3_111_42  HEAD  4 112 43
  3_112_61  HEAD  4 113 62
  3_113_102  HEAD  4 114 103
  3_114_114  HEAD  4 115 115
  3_116_1  HEAD  4 117 2
  3_116_59  HEAD  4 117 60
  3_119_43  HEAD  4 120 44
  3_120_123  HEAD  4 121 124
  3_122_94  HEAD  4 123 95
  3_125_75  HEAD  4 126 76
  3_129_86  HEAD  4 130 87
  3_129_100  HEAD  4 130 101
  3_132_50  HEAD  4 133 51
  3_136_70  HEAD  4 137 71
  3_140_74  HEAD  4 141 75
  3_140_89  HEAD  4 141 90
  3_141_114  HEAD  4 142 115
  3_148_98  HEAD  4 149 99
END continuous  FILEOUT  heads_pc.csv

BEGIN continuous  FILEOUT  heads_q.csv
  1_56_126  HEAD  2 57 127
  1_63_117  HEAD  2 64 118
  1_64_104  HEAD  2 65 105
  1_64_111  HEAD  2 65 112
  1_67_110  HEAD  2 68 111
  1_67_119  HEAD  2 68 120
  1_68_71  HEAD  2 69 72
  1_69_105  HEAD  2 70 106
  1_69_116  HEAD  2 70 117
  1_70_73  HEAD  2 71 74
  1_73_83  HEAD  2 74 84
  1_74_115  HEAD  2 75 116
  1_76_89  HEAD  2 77 90
  1_80_103  HEAD  2 81 104
  1_83_95  HEAD  2 84 96
  1_83_106  HEAD  2 84 107
  1_83_124  HEAD  2 84 125
  1_84_127  HEAD  2 85 128
  1_88_110  HEAD  2 89 111
  1_92_93  HEAD  2 93 94
  1_93_114  HEAD  2 94 115
  1_94_95  HEAD  2 95 96
  1_94_103  HEAD  2 95 104
  1_94_115  HEAD  2 95 116
  1_95_75  HEAD  2 96 76
  1_95_81  HEAD  2 96 82
  1_95_95  HEAD  2 96 96
  1_99_44  HEAD  2 100 45
  1_100_51  HEAD  2 101 52
  1_100_75  HEAD  2 101 76
  1_101_53  HEAD  2 102 54
  1_102_24  HEAD  2 103 25
  1_102_57  HEAD  2 103 58
  1_103_32  HEAD  2 104 33
  1_104_45  HEAD  2 105 46
  1_106_17  HEAD  2 107 18
  1_106_58  HEAD  2 107 59
  1_106_71  HEAD  2 107 72
  1_108_24  HEAD  2 109 25
  1_108_43  HEAD  2 109 44
  1_110_22  HEAD  2 111 23
  1_112_16  HEAD  2 113 17
  1_112_61  HEAD  2 113 62
  1_114_6  HEAD  2 115 7
  1_114_13  HEAD  2 115 14
  1_115_66  HEAD  2 116 67
  1_116_60  HEAD  2 117 61
  1_116_100  HEAD  2 117 101
  1_120_112  HEAD  2 121 113
  1_121_82  HEAD  2 122 83
  1_121_104  HEAD  2 122 105
  1_131_65  HEAD  2 132 66
  1_135_119  HEAD  2 136 120
  1_137_73  HEAD  2 138 74
  1_138_116  HEAD  2 139 117
  1_139_122  HEAD  2 140 123
  1_142_116  HEAD  2 143 117
  1_143_107  HEAD  2 144 108
  1_146_106  HEAD  2 147 107
  1_147_91  HEAD  2 148 92
  1_147_97  HEAD  2 148 98
  1_149_129  HEAD  2 150 130
  1_152_94  HEAD  2 153 95
  1_153_111  HEAD  2 154 112
  1_153_113  HEAD  2 154 114
  1_153_124  HEAD  2 154 125
  1_154_126  HEAD  2 155 127
  1_155_123  HEAD  2 156 124
  1_155_131  HEAD  2 156 132
  1_156_96  HEAD  2 157 97
  1_156_99  HEAD  2 157 100
  1_165_101  HEAD  2 166 102
  1_167_59  HEAD  2 168 60
  1_167_66  HEAD  2 168 67
END continuous  FILEOUT  heads_q.csv

BEGIN continuous  FILEOUT  heads_map_q.csv
  Qmap_1_45_124  HEAD  2 46 125
  Qmap_1_170_54  HEAD  2 171 55
  Qmap_1_97_71  HEAD  2 98 72
  Qmap_1_35_130  HEAD  2 36 131
  Qmap_1_151_91  HEAD  2 152 92
  Qmap_1_167_55  HEAD  2 168 56
  Qmap_1_79_93  HEAD  2 80 94
  Qmap_1_139_120  HEAD  2 140 121
  Qmap_1_112_42  HEAD  2 113 43
  Qmap_1_60_86  HEAD  2 61 87
  Qmap_1_83_116  HEAD  2 84 117
  Qmap_1_48_117  HEAD  2 49 118
  Qmap_1_121_104  HEAD  2 122 105
  Qmap_1_51_120  HEAD  2 52 121
  Qmap_1_128_81  HEAD  2 129 82
  Qmap_1_130_113  HEAD  2 131 114
  Qmap_1_168_66  HEAD  2 169 67
  Qmap_1_25_128  HEAD  2 26 129
  Qmap_1_117_34  HEAD  2 118 35
  Qmap_1_164_93  HEAD  2 165 94
  Qmap_1_63_82  HEAD  2 64 83
  Qmap_1_88_107  HEAD  2 89 108
  Qmap_1_112_10  HEAD  2 113 11
  Qmap_1_174_47  HEAD  2 175 48
  Qmap_1_142_112  HEAD  2 143 113
  Qmap_1_42_121  HEAD  2 43 122
  Qmap_1_64_108  HEAD  2 65 109
  Qmap_1_116_90  HEAD  2 117 91
  Qmap_1_81_93  HEAD  2 82 94
  Qmap_1_43_126  HEAD  2 44 127
  Qmap_1_159_122  HEAD  2 160 123
  Qmap_1_26_131  HEAD  2 27 132
  Qmap_1_102_20  HEAD  2 103 21
  Qmap_1_111_55  HEAD  2 112 56
  Qmap_1_149_114  HEAD  2 150 115
  Qmap_1_39_125  HEAD  2 40 126
  Qmap_1_123_127  HEAD  2 124 128
  Qmap_1_32_123  HEAD  2 33 124
  Qmap_1_130_71  HEAD  2 131 72
  Qmap_1_116_122  HEAD  2 117 123
  Qmap_1_101_125  HEAD  2 102 126
  Qmap_1_49_96  HEAD  2 50 97
  Qmap_1_130_115  HEAD  2 131 116
  Qmap_1_173_52  HEAD  2 174 53
  Qmap_1_86_88  HEAD  2 87 89
  Qmap_1_92_103  HEAD  2 93 104
  Qmap_1_160_112  HEAD  2 161 113
  Qmap_1_58_89  HEAD  2 59 90
  Qmap_1_36_126  HEAD  2 37 127
  Qmap_1_110_104  HEAD  2 111 105
  Qmap_1_168_63  HEAD  2 169 64
  Qmap_1_114_7  HEAD  2 115 8
  Qmap_1_132_112  HEAD  2 133 113
  Qmap_1_86_94  HEAD  2 87 95
  Qmap_1_171_52  HEAD  2 172 53
  Qmap_1_153_113  HEAD  2 154 114
  Qmap_1_29_120  HEAD  2 30 121
  Qmap_1_112_28  HEAD  2 113 29
  Qmap_1_158_89  HEAD  2 159 90
  Qmap_1_71_76  HEAD  2 72 77
  Qmap_1_32_118  HEAD  2 33 119
  Qmap_1_86_101  HEAD  2 87 102
  Qmap_1_41_121  HEAD  2 42 122
  Qmap_1_100_30  HEAD  2 101 31
  Qmap_1_123_83  HEAD  2 124 84
  Qmap_1_67_88  HEAD  2 68 89
  Qmap_1_150_130  HEAD  2 151 131
  Qmap_1_74_92  HEAD  2 75 93
  Qmap_1_87_120  HEAD  2 88 121
  Qmap_1_154_86  HEAD  2 155 87
  Qmap_1_127_82  HEAD  2 128 83
  Qmap_1_69_81  HEAD  2 70 82
  Qmap_1_142_129  HEAD  2 143 130
  Qmap_1_62_115  HEAD  2 63 116
  Qmap_1_75_102  HEAD  2 76 103
  Qmap_1_148_130  HEAD  2 149 131
  Qmap_1_81_105  HEAD  2 82 106
  Qmap_1_112_107  HEAD  2 113 108
  Qmap_1_114_41  HEAD  2 115 42
  Qmap_1_48_97  HEAD  2 49 98
  Qmap_1_157_111  HEAD  2 158 112
  Qmap_1_88_101  HEAD  2 89 102
  Qmap_1_52_109  HEAD  2 53 110
  Qmap_1_151_101  HEAD  2 152 102
  Qmap_1_63_108  HEAD  2 64 109
  Qmap_1_111_38  HEAD  2 112 39
  Qmap_1_101_22  HEAD  2 102 23
  Qmap_1_96_85  HEAD  2 97 86
  Qmap_1_85_120  HEAD  2 86 121
  Qmap_1_115_59  HEAD  2 116 60
  Qmap_1_49_94  HEAD  2 50 95
  Qmap_1_73_88  HEAD  2 74 89
  Qmap_1_117_52  HEAD  2 118 53
  Qmap_1_88_110  HEAD  2 89 111
  Qmap_1_42_128  HEAD  2 43 129
  Qmap_1_152_99  HEAD  2 153 100
  Qmap_1_147_103  HEAD  2 148 104
  Qmap_1_98_92  HEAD  2 99 93
  Qmap_1_138_112  HEAD  2 139 113
  Qmap_1_80_123  HEAD  2 81 124
  Qmap_1_70_80  HEAD  2 71 81
  Qmap_1_142_130  HEAD  2 143 131
  Qmap_1_94_77  HEAD  2 95 78
  Qmap_1_158_77  HEAD  2 159 78
  Qmap_1_118_50  HEAD  2 119 51
  Qmap_1_59_100  HEAD  2 60 101
  Qmap_1_53_96  HEAD  2 54 97
  Qmap_1_163_103  HEAD  2 164 104
  Qmap_1_137_117  HEAD  2 138 118
  Qmap_1_100_37  HEAD  2 101 38
  Qmap_1_119_103  HEAD  2 120 104
  Qmap_1_144_110  HEAD  2 145 111
  Qmap_1_107_49  HEAD  2 108 50
  Qmap_1_57_82  HEAD  2 58 83
  Qmap_1_56_91  HEAD  2 57 92
  Qmap_1_97_80  HEAD  2 98 81
  Qmap_1_159_84  HEAD  2 160 85
  Qmap_1_67_103  HEAD  2 68 104
  Qmap_1_153_98  HEAD  2 154 99
  Qmap_1_178_55  HEAD  2 179 56
  Qmap_1_117_56  HEAD  2 118 57
  Qmap_1_117_99  HEAD  2 118 100
  Qmap_1_149_98  HEAD  2 150 99
  Qmap_1_83_92  HEAD  2 84 93
  Qmap_1_147_108  HEAD  2 148 109
  Qmap_1_164_105  HEAD  2 165 106
  Qmap_1_147_116  HEAD  2 148 117
  Qmap_1_130_129  HEAD  2 131 130
  Qmap_1_115_110  HEAD  2 116 111
  Qmap_1_55_101  HEAD  2 56 102
  Qmap_1_64_110  HEAD  2 65 111
  Qmap_1_107_29  HEAD  2 108 30
  Qmap_1_143_111  HEAD  2 144 112
  Qmap_1_100_26  HEAD  2 101 27
  Qmap_1_32_131  HEAD  2 33 132
  Qmap_1_103_63  HEAD  2 104 64
  Qmap_1_167_63  HEAD  2 168 64
  Qmap_1_82_127  HEAD  2 83 128
  Qmap_1_115_43  HEAD  2 116 44
  Qmap_1_67_79  HEAD  2 68 80
  Qmap_1_140_107  HEAD  2 141 108
  Qmap_1_40_108  HEAD  2 41 109
  Qmap_1_116_36  HEAD  2 117 37
  Qmap_1_64_88  HEAD  2 65 89
  Qmap_1_73_91  HEAD  2 74 92
  Qmap_1_78_100  HEAD  2 79 101
  Qmap_1_119_89  HEAD  2 120 90
  Qmap_1_141_114  HEAD  2 142 115
  Qmap_1_152_114  HEAD  2 153 115
  Qmap_1_68_127  HEAD  2 69 128
  Qmap_1_115_1  HEAD  2 116 2
  Qmap_1_138_71  HEAD  2 139 72
  Qmap_1_54_116  HEAD  2 55 117
  Qmap_1_25_129  HEAD  2 26 130
  Qmap_1_115_7  HEAD  2 116 8
  Qmap_1_73_124  HEAD  2 74 125
  Qmap_1_152_100  HEAD  2 153 101
  Qmap_1_104_20  HEAD  2 105 21
  Qmap_1_34_128  HEAD  2 35 129
  Qmap_1_64_123  HEAD  2 65 124
  Qmap_1_137_122  HEAD  2 138 123
  Qmap_1_155_99  HEAD  2 156 100
  Qmap_1_100_54  HEAD  2 101 55
  Qmap_1_105_16  HEAD  2 106 17
  Qmap_1_111_102  HEAD  2 112 103
  Qmap_1_103_51  HEAD  2 104 52
  Qmap_1_96_90  HEAD  2 97 91
  Qmap_1_164_67  HEAD  2 165 68
  Qmap_1_112_110  HEAD  2 113 111
  Qmap_1_111_64  HEAD  2 112 65
  Qmap_1_154_91  HEAD  2 155 92
  Qmap_1_70_96  HEAD  2 71 97
  Qmap_1_69_89  HEAD  2 70 90
  Qmap_1_149_99  HEAD  2 150 100
  Qmap_1_115_44  HEAD  2 116 45
  Qmap_1_126_75  HEAD  2 127 76
  Qmap_1_49_101  HEAD  2 50 102
  Qmap_1_55_85  HEAD  2 56 86
  Qmap_1_84_121  HEAD  2 85 122
  Qmap_1_68_123  HEAD  2 69 124
  Qmap_1_56_89  HEAD  2 57 90
  Qmap_1_70_128  HEAD  2 71 129
  Qmap_1_71_126  HEAD  2 72 127
  Qmap_1_112_71  HEAD  2 113 72
  Qmap_1_75_100  HEAD  2 76 101
  Qmap_1_52_128  HEAD  2 53 129
  Qmap_1_88_95  HEAD  2 89 96
  Qmap_1_146_104  HEAD  2 147 105
  Qmap_1_112_61  HEAD  2 113 62
  Qmap_1_62_78  HEAD  2 63 79
  Qmap_1_91_129  HEAD  2 92 130
  Qmap_1_162_89  HEAD  2 163 90
  Qmap_1_52_92  HEAD  2 53 93
  Qmap_1_85_100  HEAD  2 86 101
  Qmap_1_65_74  HEAD  2 66 75
  Qmap_1_116_112  HEAD  2 117 113
  Qmap_1_76_97  HEAD  2 77 98
  Qmap_1_67_95  HEAD  2 68 96
  Qmap_1_156_84  HEAD  2 157 85
  Qmap_1_125_82  HEAD  2 126 83
END continuous  FILEOUT  heads_map_q.csv

BEGIN continuous  FILEOUT  heads_map_p.csv
  Pmap_1_125_110  HEAD  4 126 111
  Pmap_1_81_123  HEAD  4 82 124
  Pmap_1_135_55  HEAD  4 136 56
  Pmap_1_49_110  HEAD  4 50 111
  Pmap_1_111_93  HEAD  4 112 94
  Pmap_1_144_130  HEAD  4 145 131
  Pmap_1_111_68  HEAD  4 112 69
  Pmap_1_62_101  HEAD  4 63 102
  Pmap_1_43_120  HEAD  4 44 121
  Pmap_1_86_115  HEAD  4 87 116
  Pmap_1_129_121  HEAD  4 130 122
  Pmap_1_105_107  HEAD  4 106 108
  Pmap_1_109_24  HEAD  4 110 25
  Pmap_1_166_103  HEAD  4 167 104
  Pmap_1_40_122  HEAD  4 41 123
  Pmap_1_92_74  HEAD  4 93 75
  Pmap_1_93_54  HEAD  4 94 55
  Pmap_1_142_65  HEAD  4 143 66
  Pmap_1_102_23  HEAD  4 103 24
  Pmap_1_140_45  HEAD  4 141 46
  Pmap_1_88_90  HEAD  4 89 91
  Pmap_1_146_79  HEAD  4 147 80
  Pmap_1_137_101  HEAD  4 138 102
  Pmap_1_90_121  HEAD  4 91 122
  Pmap_1_124_71  HEAD  4 125 72
  Pmap_1_145_130  HEAD  4 146 131
  Pmap_1_53_113  HEAD  4 54 114
  Pmap_1_108_99  HEAD  4 109 100
  Pmap_1_160_112  HEAD  4 161 113
  Pmap_1_59_120  HEAD  4 60 121
  Pmap_1_137_104  HEAD  4 138 105
  Pmap_1_144_88  HEAD  4 145 89
  Pmap_1_119_59  HEAD  4 120 60
  Pmap_1_40_113  HEAD  4 41 114
  Pmap_1_55_111  HEAD  4 56 112
  Pmap_1_92_63  HEAD  4 93 64
  Pmap_1_137_79  HEAD  4 138 80
  Pmap_1_60_106  HEAD  4 61 107
  Pmap_1_128_52  HEAD  4 129 53
  Pmap_1_157_99  HEAD  4 158 100
  Pmap_1_124_123  HEAD  4 125 124
  Pmap_1_79_114  HEAD  4 80 115
  Pmap_1_124_64  HEAD  4 125 65
  Pmap_1_156_57  HEAD  4 157 58
  Pmap_1_106_77  HEAD  4 107 78
  Pmap_1_46_109  HEAD  4 47 110
  Pmap_1_48_108  HEAD  4 49 109
  Pmap_1_110_16  HEAD  4 111 17
  Pmap_1_30_121  HEAD  4 31 122
  Pmap_1_87_92  HEAD  4 88 93
  Pmap_1_134_119  HEAD  4 135 120
  Pmap_1_97_109  HEAD  4 98 110
  Pmap_1_157_116  HEAD  4 158 117
  Pmap_1_55_121  HEAD  4 56 122
  Pmap_1_120_67  HEAD  4 121 68
  Pmap_1_159_120  HEAD  4 160 121
  Pmap_1_107_74  HEAD  4 108 75
  Pmap_1_141_46  HEAD  4 142 47
  Pmap_1_146_65  HEAD  4 147 66
  Pmap_1_41_114  HEAD  4 42 115
  Pmap_1_124_97  HEAD  4 125 98
  Pmap_1_125_79  HEAD  4 126 80
  Pmap_1_124_103  HEAD  4 125 104
  Pmap_1_41_109  HEAD  4 42 110
  Pmap_1_147_89  HEAD  4 148 90
  Pmap_1_77_112  HEAD  4 78 113
  Pmap_1_45_118  HEAD  4 46 119
  Pmap_1_71_106  HEAD  4 72 107
  Pmap_1_137_60  HEAD  4 138 61
  Pmap_1_110_88  HEAD  4 111 89
  Pmap_1_147_119  HEAD  4 148 120
  Pmap_1_98_86  HEAD  4 99 87
  Pmap_1_137_117  HEAD  4 138 118
  Pmap_1_107_111  HEAD  4 108 112
  Pmap_1_97_106  HEAD  4 98 107
  Pmap_1_154_111  HEAD  4 155 112
  Pmap_1_119_101  HEAD  4 120 102
  Pmap_1_95_59  HEAD  4 96 60
  Pmap_1_104_63  HEAD  4 105 64
  Pmap_1_152_75  HEAD  4 153 76
  Pmap_1_109_40  HEAD  4 110 41
  Pmap_1_135_87  HEAD  4 136 88
  Pmap_1_59_116  HEAD  4 60 117
  Pmap_1_156_131  HEAD  4 157 132
  Pmap_1_82_91  HEAD  4 83 92
  Pmap_1_154_99  HEAD  4 155 100
  Pmap_1_126_84  HEAD  4 127 85
  Pmap_1_69_93  HEAD  4 70 94
  Pmap_1_90_48  HEAD  4 91 49
  Pmap_1_113_40  HEAD  4 114 41
  Pmap_1_158_111  HEAD  4 159 112
  Pmap_1_149_65  HEAD  4 150 66
  Pmap_1_40_126  HEAD  4 41 127
  Pmap_1_104_19  HEAD  4 105 20
  Pmap_1_93_52  HEAD  4 94 53
  Pmap_1_87_66  HEAD  4 88 67
  Pmap_1_77_119  HEAD  4 78 120
  Pmap_1_76_90  HEAD  4 77 91
  Pmap_1_123_84  HEAD  4 124 85
  Pmap_1_40_124  HEAD  4 41 125
  Pmap_1_106_60  HEAD  4 107 61
  Pmap_1_131_49  HEAD  4 132 50
  Pmap_1_43_124  HEAD  4 44 125
  Pmap_1_111_102  HEAD  4 112 103
  Pmap_1_150_127  HEAD  4 151 128
  Pmap_1_77_104  HEAD  4 78 105
  Pmap_1_139_99  HEAD  4 140 100
  Pmap_1_59_95  HEAD  4 60 96
  Pmap_1_80_57  HEAD  4 81 58
  Pmap_1_107_109  HEAD  4 108 110
  Pmap_1_114_41  HEAD  4 115 42
  Pmap_1_83_75  HEAD  4 84 76
  Pmap_1_150_67  HEAD  4 151 68
  Pmap_1_151_59  HEAD  4 152 60
  Pmap_1_88_62  HEAD  4 89 63
  Pmap_1_112_99  HEAD  4 113 100
  Pmap_1_154_58  HEAD  4 155 59
  Pmap_1_158_66  HEAD  4 159 67
  Pmap_1_151_62  HEAD  4 152 63
  Pmap_1_62_76  HEAD  4 63 77
  Pmap_1_118_100  HEAD  4 119 101
  Pmap_1_94_79  HEAD  4 95 80
  Pmap_1_115_117  HEAD  4 116 118
  Pmap_1_35_129  HEAD  4 36 130
  Pmap_1_119_122  HEAD  4 120 123
  Pmap_1_110_55  HEAD  4 111 56
  Pmap_1_131_90  HEAD  4 132 91
  Pmap_1_50_110  HEAD  4 51 111
  Pmap_1_135_79  HEAD  4 136 80
  Pmap_1_98_70  HEAD  4 99 71
  Pmap_1_124_61  HEAD  4 125 62
  Pmap_1_112_58  HEAD  4 113 59
  Pmap_1_103_55  HEAD  4 104 56
  Pmap_1_133_125  HEAD  4 134 126
  Pmap_1_43_109  HEAD  4 44 110
  Pmap_1_119_41  HEAD  4 120 42
  Pmap_1_40_128  HEAD  4 41 129
  Pmap_1_113_77  HEAD  4 114 78
  Pmap_1_159_124  HEAD  4 160 125
  Pmap_1_74_119  HEAD  4 75 120
  Pmap_1_68_102  HEAD  4 69 103
  Pmap_1_122_117  HEAD  4 123 118
  Pmap_1_141_88  HEAD  4 142 89
  Pmap_1_83_128  HEAD  4 84 129
  Pmap_1_95_64  HEAD  4 96 65
  Pmap_1_133_51  HEAD  4 134 52
  Pmap_1_89_117  HEAD  4 90 118
  Pmap_1_68_109  HEAD  4 69 110
  Pmap_1_102_64  HEAD  4 103 65
  Pmap_1_87_80  HEAD  4 88 81
  Pmap_1_99_105  HEAD  4 100 106
  Pmap_1_95_104  HEAD  4 96 105
  Pmap_1_57_95  HEAD  4 58 96
  Pmap_1_126_85  HEAD  4 127 86
  Pmap_1_55_118  HEAD  4 56 119
  Pmap_1_88_66  HEAD  4 89 67
  Pmap_1_62_128  HEAD  4 63 129
  Pmap_1_60_108  HEAD  4 61 109
  Pmap_1_151_111  HEAD  4 152 112
  Pmap_1_156_107  HEAD  4 157 108
  Pmap_1_106_32  HEAD  4 107 33
  Pmap_1_77_81  HEAD  4 78 82
  Pmap_1_107_112  HEAD  4 108 113
  Pmap_1_45_114  HEAD  4 46 115
  Pmap_1_151_52  HEAD  4 152 53
  Pmap_1_120_125  HEAD  4 121 126
  Pmap_1_85_108  HEAD  4 86 109
  Pmap_1_67_118  HEAD  4 68 119
  Pmap_1_88_124  HEAD  4 89 125
  Pmap_1_107_15  HEAD  4 108 16
  Pmap_1_75_123  HEAD  4 76 124
  Pmap_1_104_16  HEAD  4 105 17
  Pmap_1_153_104  HEAD  4 154 105
  Pmap_1_164_62  HEAD  4 165 63
  Pmap_1_77_85  HEAD  4 78 86
  Pmap_1_83_65  HEAD  4 84 66
  Pmap_1_113_51  HEAD  4 114 52
  Pmap_1_79_87  HEAD  4 80 88
  Pmap_1_102_57  HEAD  4 103 58
  Pmap_1_149_74  HEAD  4 150 75
  Pmap_1_18_132  HEAD  4 19 133
  Pmap_1_118_45  HEAD  4 119 46
  Pmap_1_122_128  HEAD  4 123 129
  Pmap_1_54_94  HEAD  4 55 95
  Pmap_1_73_89  HEAD  4 74 90
  Pmap_1_116_57  HEAD  4 117 58
  Pmap_1_72_79  HEAD  4 73 80
  Pmap_1_57_117  HEAD  4 58 118
  Pmap_1_89_56  HEAD  4 90 57
  Pmap_1_89_69  HEAD  4 90 70
  Pmap_1_79_107  HEAD  4 80 108
  Pmap_1_99_123  HEAD  4 100 124
  Pmap_1_108_13  HEAD  4 109 14
  Pmap_1_106_38  HEAD  4 107 39
  Pmap_1_98_38  HEAD  4 99 39
  Pmap_1_95_59  HEAD  4 96 60
  Pmap_1_48_109  HEAD  4 49 110
  Pmap_1_94_87  HEAD  4 95 88
  Pmap_1_101_78  HEAD  4 102 79
  Pmap_1_87_103  HEAD  4 88 104
END continuous  FILEOUT  heads_map_p.csv

