pcf
* control data
             restart          estimation
       214       372         5         0         4         0
        10         4              single               point         1         0         0          noobsreref
   2.000000E+01  -3.000000E+00   3.000000E-01   1.000000E-02        -7       999          lamforgive        noderforgive
   1.000000E+01   1.000000E+01   1.000000E-03         0         0
   1.000000E-01         1   1.100000E+00               noaui          nosenreuse        noboundscale
         0   1.000000E-02         3         3   1.000000E-02         3   0.000000E+00         1  -1.000000E+00
         0         0         0         0             jcosave          verboserec          jcosaveitn          reisaveitn          parsaveitn        noparsaverun
* singular value decomposition
         1
  10000000    1.000000E-06
1
* parameter groups
 kp_pc_inst:0            relative              1.0000000000E-02       0.0  switch                2.0000000000E+00       parabolic              1.0000000000E-05       5.0000000000E-01       smaller              
 kp_q_inst:0             relative              1.0000000000E-02       0.0  switch                2.0000000000E+00       parabolic              1.0000000000E-05       5.0000000000E-01       smaller              
 irr__multiplier         relative              1.0000000000E-02       0.0  switch                2.0000000000E+00       parabolic              1.0000000000E-05       5.0000000000E-01       smaller              
 cond                    relative              1.0000000000E-02       0.0  switch                2.0000000000E+00       parabolic              1.0000000000E-05       5.0000000000E-01       smaller              
 pms__multiplier         relative              1.0000000000E-02       0.0  switch                2.0000000000E+00       parabolic              1.0000000000E-05       5.0000000000E-01       smaller              
* parameter data
          kp_q_inst:0_i:15_j:135   log                    factor                5.6110998877E-01      5.0000000000E-03      3.0000000000E+00       kp_q_inst:0           1.0000000000E+00      0.0000000000E+00       1          
          kp_q_inst:0_i:25_j:135   log                    factor                2.9999982405E+00      5.0000000000E-03      3.0000000000E+00       kp_q_inst:0           1.0000000000E+00      0.0000000000E+00       1          
          kp_q_inst:0_i:35_j:125   log                    factor                1.2265633960E-02      5.0000000000E-03      3.0000000000E+00       kp_q_inst:0           1.0000000000E+00      0.0000000000E+00       1          
          kp_q_inst:0_i:35_j:135   log                    factor                3.1365556690E-01      5.0000000000E-03      3.0000000000E+00       kp_q_inst:0           1.0000000000E+00      0.0000000000E+00       1          
          kp_q_inst:0_i:45_j:105   log                    factor                2.9999982405E+00      5.0000000000E-03      3.0000000000E+00       kp_q_inst:0           1.0000000000E+00      0.0000000000E+00       1          
          kp_q_inst:0_i:45_j:115   log                    factor                2.9999982405E+00      5.0000000000E-03      3.0000000000E+00       kp_q_inst:0           1.0000000000E+00      0.0000000000E+00       1          
          kp_q_inst:0_i:45_j:125   log                    factor                4.9999999501E-03      5.0000000000E-03      3.0000000000E+00       kp_q_inst:0           1.0000000000E+00      0.0000000000E+00       1          
          kp_q_inst:0_i:45_j:135   log                    factor                4.9999999501E-03      5.0000000000E-03      3.0000000000E+00       kp_q_inst:0           1.0000000000E+00      0.0000000000E+00       1          
           kp_q_inst:0_i:55_j:85   log                    factor                2.9999982405E+00      5.0000000000E-03      3.0000000000E+00       kp_q_inst:0           1.0000000000E+00      0.0000000000E+00       1          
           kp_q_inst:0_i:55_j:95   log                    factor                4.9999999501E-03      5.0000000000E-03      3.0000000000E+00       kp_q_inst:0           1.0000000000E+00      0.0000000000E+00       1          
          kp_q_inst:0_i:55_j:105   log                    factor                2.9999982405E+00      5.0000000000E-03      3.0000000000E+00       kp_q_inst:0           1.0000000000E+00      0.0000000000E+00       1          
          kp_q_inst:0_i:55_j:115   log                    factor                2.9999982405E+00      5.0000000000E-03      3.0000000000E+00       kp_q_inst:0           1.0000000000E+00      0.0000000000E+00       1          
          kp_q_inst:0_i:55_j:125   log                    factor                2.9999982405E+00      5.0000000000E-03      3.0000000000E+00       kp_q_inst:0           1.0000000000E+00      0.0000000000E+00       1          
          kp_q_inst:0_i:55_j:135   log                    factor                2.4470508830E+00      5.0000000000E-03      3.0000000000E+00       kp_q_inst:0           1.0000000000E+00      0.0000000000E+00       1          
           kp_q_inst:0_i:65_j:75   log                    factor                2.9999982405E+00      5.0000000000E-03      3.0000000000E+00       kp_q_inst:0           1.0000000000E+00      0.0000000000E+00       1          
           kp_q_inst:0_i:65_j:85   log                    factor                3.4583584119E-02      5.0000000000E-03      3.0000000000E+00       kp_q_inst:0           1.0000000000E+00      0.0000000000E+00       1          
           kp_q_inst:0_i:65_j:95   log                    factor                1.0457792007E-02      5.0000000000E-03      3.0000000000E+00       kp_q_inst:0           1.0000000000E+00      0.0000000000E+00       1          
          kp_q_inst:0_i:65_j:105   log                    factor                2.9999982405E+00      5.0000000000E-03      3.0000000000E+00       kp_q_inst:0           1.0000000000E+00      0.0000000000E+00       1          
          kp_q_inst:0_i:65_j:115   log                    factor                2.9999982405E+00      5.0000000000E-03      3.0000000000E+00       kp_q_inst:0           1.0000000000E+00      0.0000000000E+00       1          
          kp_q_inst:0_i:65_j:125   log                    factor                2.9999982405E+00      5.0000000000E-03      3.0000000000E+00       kp_q_inst:0           1.0000000000E+00      0.0000000000E+00       1          
          kp_q_inst:0_i:65_j:135   log                    factor                2.9999982405E+00      5.0000000000E-03      3.0000000000E+00       kp_q_inst:0           1.0000000000E+00      0.0000000000E+00       1          
           kp_q_inst:0_i:75_j:85   log                    factor                2.1860948443E-01      5.0000000000E-03      3.0000000000E+00       kp_q_inst:0           1.0000000000E+00      0.0000000000E+00       1          
           kp_q_inst:0_i:75_j:95   log                    factor                2.0672404771E+00      5.0000000000E-03      3.0000000000E+00       kp_q_inst:0           1.0000000000E+00      0.0000000000E+00       1          
          kp_q_inst:0_i:75_j:105   log                    factor                6.2407961935E-02      5.0000000000E-03      3.0000000000E+00       kp_q_inst:0           1.0000000000E+00      0.0000000000E+00       1          
          kp_q_inst:0_i:75_j:115   log                    factor                2.9999982405E+00      5.0000000000E-03      3.0000000000E+00       kp_q_inst:0           1.0000000000E+00      0.0000000000E+00       1          
          kp_q_inst:0_i:75_j:125   log                    factor                2.7661772168E-02      5.0000000000E-03      3.0000000000E+00       kp_q_inst:0           1.0000000000E+00      0.0000000000E+00       1          
          kp_q_inst:0_i:75_j:135   log                    factor                8.9551857812E-01      5.0000000000E-03      3.0000000000E+00       kp_q_inst:0           1.0000000000E+00      0.0000000000E+00       1          
           kp_q_inst:0_i:85_j:95   log                    factor                2.3976180530E-02      5.0000000000E-03      3.0000000000E+00       kp_q_inst:0           1.0000000000E+00      0.0000000000E+00       1          
          kp_q_inst:0_i:85_j:105   log                    factor                3.1137733693E-01      5.0000000000E-03      3.0000000000E+00       kp_q_inst:0           1.0000000000E+00      0.0000000000E+00       1          
          kp_q_inst:0_i:85_j:115   log                    factor                8.4218868059E-01      5.0000000000E-03      3.0000000000E+00       kp_q_inst:0           1.0000000000E+00      0.0000000000E+00       1          
          kp_q_inst:0_i:85_j:125   log                    factor                2.9999982405E+00      5.0000000000E-03      3.0000000000E+00       kp_q_inst:0           1.0000000000E+00      0.0000000000E+00       1          
          kp_q_inst:0_i:85_j:135   log                    factor                2.9999982405E+00      5.0000000000E-03      3.0000000000E+00       kp_q_inst:0           1.0000000000E+00      0.0000000000E+00       1          
           kp_q_inst:0_i:95_j:75   log                    factor                7.5946716114E-01      5.0000000000E-03      3.0000000000E+00       kp_q_inst:0           1.0000000000E+00      0.0000000000E+00       1          
           kp_q_inst:0_i:95_j:85   log                    factor                6.1583447859E-01      5.0000000000E-03      3.0000000000E+00       kp_q_inst:0           1.0000000000E+00      0.0000000000E+00       1          
           kp_q_inst:0_i:95_j:95   log                    factor                2.9999982405E+00      5.0000000000E-03      3.0000000000E+00       kp_q_inst:0           1.0000000000E+00      0.0000000000E+00       1          
          kp_q_inst:0_i:95_j:115   log                    factor                1.8279781489E-01      5.0000000000E-03      3.0000000000E+00       kp_q_inst:0           1.0000000000E+00      0.0000000000E+00       1          
          kp_q_inst:0_i:95_j:125   log                    factor                2.9999982405E+00      5.0000000000E-03      3.0000000000E+00       kp_q_inst:0           1.0000000000E+00      0.0000000000E+00       1          
          kp_q_inst:0_i:95_j:135   log                    factor                4.9999999501E-03      5.0000000000E-03      3.0000000000E+00       kp_q_inst:0           1.0000000000E+00      0.0000000000E+00       1          
          kp_q_inst:0_i:105_j:25   log                    factor                1.3418222839E+00      5.0000000000E-03      3.0000000000E+00       kp_q_inst:0           1.0000000000E+00      0.0000000000E+00       1          
          kp_q_inst:0_i:105_j:35   log                    factor                1.8926486530E-02      5.0000000000E-03      3.0000000000E+00       kp_q_inst:0           1.0000000000E+00      0.0000000000E+00       1          
          kp_q_inst:0_i:105_j:45   log                    factor                1.6097002074E-01      5.0000000000E-03      3.0000000000E+00       kp_q_inst:0           1.0000000000E+00      0.0000000000E+00       1          
          kp_q_inst:0_i:105_j:55   log                    factor                8.2523948621E-02      5.0000000000E-03      3.0000000000E+00       kp_q_inst:0           1.0000000000E+00      0.0000000000E+00       1          
          kp_q_inst:0_i:105_j:65   log                    factor                1.6443225020E-01      5.0000000000E-03      3.0000000000E+00       kp_q_inst:0           1.0000000000E+00      0.0000000000E+00       1          
          kp_q_inst:0_i:105_j:75   log                    factor                3.6214458854E-01      5.0000000000E-03      3.0000000000E+00       kp_q_inst:0           1.0000000000E+00      0.0000000000E+00       1          
         kp_q_inst:0_i:105_j:125   log                    factor                2.9999982405E+00      5.0000000000E-03      3.0000000000E+00       kp_q_inst:0           1.0000000000E+00      0.0000000000E+00       1          
         kp_q_inst:0_i:105_j:135   log                    factor                4.9999999501E-03      5.0000000000E-03      3.0000000000E+00       kp_q_inst:0           1.0000000000E+00      0.0000000000E+00       1          
           kp_q_inst:0_i:115_j:5   log                    factor                1.4568673151E-02      5.0000000000E-03      3.0000000000E+00       kp_q_inst:0           1.0000000000E+00      0.0000000000E+00       1          
          kp_q_inst:0_i:115_j:15   log                    factor                1.3020360234E-01      5.0000000000E-03      3.0000000000E+00       kp_q_inst:0           1.0000000000E+00      0.0000000000E+00       1          
          kp_q_inst:0_i:115_j:35   log                    factor                5.7155759482E-02      5.0000000000E-03      3.0000000000E+00       kp_q_inst:0           1.0000000000E+00      0.0000000000E+00       1          
          kp_q_inst:0_i:115_j:45   log                    factor                4.1311027784E-01      5.0000000000E-03      3.0000000000E+00       kp_q_inst:0           1.0000000000E+00      0.0000000000E+00       1          
          kp_q_inst:0_i:115_j:55   log                    factor                1.7166588626E-01      5.0000000000E-03      3.0000000000E+00       kp_q_inst:0           1.0000000000E+00      0.0000000000E+00       1          
          kp_q_inst:0_i:115_j:65   log                    factor                2.9999982405E+00      5.0000000000E-03      3.0000000000E+00       kp_q_inst:0           1.0000000000E+00      0.0000000000E+00       1          
          kp_q_inst:0_i:115_j:95   log                    factor                2.9999982405E+00      5.0000000000E-03      3.0000000000E+00       kp_q_inst:0           1.0000000000E+00      0.0000000000E+00       1          
         kp_q_inst:0_i:115_j:105   log                    factor                4.9999999501E-03      5.0000000000E-03      3.0000000000E+00       kp_q_inst:0           1.0000000000E+00      0.0000000000E+00       1          
         kp_q_inst:0_i:115_j:115   log                    factor                4.9999999501E-03      5.0000000000E-03      3.0000000000E+00       kp_q_inst:0           1.0000000000E+00      0.0000000000E+00       1          
         kp_q_inst:0_i:115_j:125   log                    factor                2.9999982405E+00      5.0000000000E-03      3.0000000000E+00       kp_q_inst:0           1.0000000000E+00      0.0000000000E+00       1          
         kp_q_inst:0_i:115_j:135   log                    factor                2.9999982405E+00      5.0000000000E-03      3.0000000000E+00       kp_q_inst:0           1.0000000000E+00      0.0000000000E+00       1          
          kp_q_inst:0_i:125_j:55   log                    factor                2.9999982405E+00      5.0000000000E-03      3.0000000000E+00       kp_q_inst:0           1.0000000000E+00      0.0000000000E+00       1          
          kp_q_inst:0_i:125_j:75   log                    factor                8.5642611152E-01      5.0000000000E-03      3.0000000000E+00       kp_q_inst:0           1.0000000000E+00      0.0000000000E+00       1          
         kp_q_inst:0_i:125_j:105   log                    factor                2.9999982405E+00      5.0000000000E-03      3.0000000000E+00       kp_q_inst:0           1.0000000000E+00      0.0000000000E+00       1          
         kp_q_inst:0_i:125_j:115   log                    factor                1.5906330429E+00      5.0000000000E-03      3.0000000000E+00       kp_q_inst:0           1.0000000000E+00      0.0000000000E+00       1          
         kp_q_inst:0_i:125_j:125   log                    factor                2.9999982405E+00      5.0000000000E-03      3.0000000000E+00       kp_q_inst:0           1.0000000000E+00      0.0000000000E+00       1          
         kp_q_inst:0_i:125_j:135   log                    factor                2.9999982405E+00      5.0000000000E-03      3.0000000000E+00       kp_q_inst:0           1.0000000000E+00      0.0000000000E+00       1          
         kp_q_inst:0_i:135_j:105   log                    factor                3.5196380167E-01      5.0000000000E-03      3.0000000000E+00       kp_q_inst:0           1.0000000000E+00      0.0000000000E+00       1          
         kp_q_inst:0_i:135_j:115   log                    factor                2.9999982405E+00      5.0000000000E-03      3.0000000000E+00       kp_q_inst:0           1.0000000000E+00      0.0000000000E+00       1          
         kp_q_inst:0_i:135_j:125   log                    factor                4.4429456438E-01      5.0000000000E-03      3.0000000000E+00       kp_q_inst:0           1.0000000000E+00      0.0000000000E+00       1          
         kp_q_inst:0_i:135_j:135   log                    factor                4.9999999501E-03      5.0000000000E-03      3.0000000000E+00       kp_q_inst:0           1.0000000000E+00      0.0000000000E+00       1          
          kp_q_inst:0_i:145_j:95   log                    factor                2.9999982405E+00      5.0000000000E-03      3.0000000000E+00       kp_q_inst:0           1.0000000000E+00      0.0000000000E+00       1          
         kp_q_inst:0_i:145_j:105   log                    factor                2.9999982405E+00      5.0000000000E-03      3.0000000000E+00       kp_q_inst:0           1.0000000000E+00      0.0000000000E+00       1          
         kp_q_inst:0_i:145_j:115   log                    factor                4.9999999501E-03      5.0000000000E-03      3.0000000000E+00       kp_q_inst:0           1.0000000000E+00      0.0000000000E+00       1          
         kp_q_inst:0_i:145_j:125   log                    factor                4.9999999501E-03      5.0000000000E-03      3.0000000000E+00       kp_q_inst:0           1.0000000000E+00      0.0000000000E+00       1          
         kp_q_inst:0_i:145_j:135   log                    factor                2.9999982405E+00      5.0000000000E-03      3.0000000000E+00       kp_q_inst:0           1.0000000000E+00      0.0000000000E+00       1          
          kp_q_inst:0_i:155_j:85   log                    factor                2.9999982405E+00      5.0000000000E-03      3.0000000000E+00       kp_q_inst:0           1.0000000000E+00      0.0000000000E+00       1          
          kp_q_inst:0_i:155_j:95   log                    factor                3.3400271726E-02      5.0000000000E-03      3.0000000000E+00       kp_q_inst:0           1.0000000000E+00      0.0000000000E+00       1          
         kp_q_inst:0_i:155_j:105   log                    factor                4.9999999501E-03      5.0000000000E-03      3.0000000000E+00       kp_q_inst:0           1.0000000000E+00      0.0000000000E+00       1          
         kp_q_inst:0_i:155_j:115   log                    factor                4.9999999501E-03      5.0000000000E-03      3.0000000000E+00       kp_q_inst:0           1.0000000000E+00      0.0000000000E+00       1          
         kp_q_inst:0_i:155_j:125   log                    factor                2.9999982405E+00      5.0000000000E-03      3.0000000000E+00       kp_q_inst:0           1.0000000000E+00      0.0000000000E+00       1          
         kp_q_inst:0_i:155_j:135   log                    factor                4.9999999501E-03      5.0000000000E-03      3.0000000000E+00       kp_q_inst:0           1.0000000000E+00      0.0000000000E+00       1          
          kp_q_inst:0_i:165_j:65   log                    factor                1.7445041222E-01      5.0000000000E-03      3.0000000000E+00       kp_q_inst:0           1.0000000000E+00      0.0000000000E+00       1          
          kp_q_inst:0_i:165_j:95   log                    factor                4.9999999501E-03      5.0000000000E-03      3.0000000000E+00       kp_q_inst:0           1.0000000000E+00      0.0000000000E+00       1          
          kp_q_inst:0_i:175_j:45   log                    factor                2.9999982405E+00      5.0000000000E-03      3.0000000000E+00       kp_q_inst:0           1.0000000000E+00      0.0000000000E+00       1          
          kp_q_inst:0_i:175_j:55   log                    factor                4.9999999501E-03      5.0000000000E-03      3.0000000000E+00       kp_q_inst:0           1.0000000000E+00      0.0000000000E+00       1          
          kp_q_inst:0_i:175_j:65   log                    factor                1.8347208654E-02      5.0000000000E-03      3.0000000000E+00       kp_q_inst:0           1.0000000000E+00      0.0000000000E+00       1          
            c_agly                 log                    factor                1.0000000000E-02      1.0000000000E-03      1.0000000000E-02       cond                  1.0000000000E+00      0.0000000000E+00       1          
            c_bol                  log                    factor                1.0000000000E-03      1.0000000000E-03      1.0000000000E-02       cond                  1.0000000000E+00      0.0000000000E+00       1          
            c_cant                 log                    factor                1.0000000000E-03      1.0000000000E-03      1.0000000000E-02       cond                  1.0000000000E+00      0.0000000000E+00       1          
            c_rea                  log                    factor                1.0000000000E-03      1.0000000000E-03      1.0000000000E-02       cond                  1.0000000000E+00      0.0000000000E+00       1          
            c_tech                 log                    factor                1.0000000000E-03      1.0000000000E-03      1.0000000000E-02       cond                  1.0000000000E+00      0.0000000000E+00       1          
            c_tet                  log                    factor                4.2978375899E-03      1.0000000000E-03      1.0000000000E-02       cond                  1.0000000000E+00      0.0000000000E+00       1          
         kp_pc_inst:0_i:15_j:125   log                    factor                4.9999999501E-02      5.0000000000E-02      5.0000000000E+01       kp_pc_inst:0          1.0000000000E+00      0.0000000000E+00       1          
         kp_pc_inst:0_i:15_j:135   log                    factor                4.9999999501E+01      5.0000000000E-02      5.0000000000E+01       kp_pc_inst:0          1.0000000000E+00      0.0000000000E+00       1          
         kp_pc_inst:0_i:25_j:135   log                    factor                4.9999999501E-02      5.0000000000E-02      5.0000000000E+01       kp_pc_inst:0          1.0000000000E+00      0.0000000000E+00       1          
         kp_pc_inst:0_i:35_j:125   log                    factor                4.9999999501E-02      5.0000000000E-02      5.0000000000E+01       kp_pc_inst:0          1.0000000000E+00      0.0000000000E+00       1          
         kp_pc_inst:0_i:35_j:135   log                    factor                4.9999999501E-02      5.0000000000E-02      5.0000000000E+01       kp_pc_inst:0          1.0000000000E+00      0.0000000000E+00       1          
         kp_pc_inst:0_i:45_j:105   log                    factor                4.9999999501E+01      5.0000000000E-02      5.0000000000E+01       kp_pc_inst:0          1.0000000000E+00      0.0000000000E+00       1          
         kp_pc_inst:0_i:45_j:115   log                    factor                4.9999999501E+01      5.0000000000E-02      5.0000000000E+01       kp_pc_inst:0          1.0000000000E+00      0.0000000000E+00       1          
         kp_pc_inst:0_i:45_j:125   log                    factor                4.9999999501E-02      5.0000000000E-02      5.0000000000E+01       kp_pc_inst:0          1.0000000000E+00      0.0000000000E+00       1          
         kp_pc_inst:0_i:45_j:135   log                    factor                4.9999999501E+01      5.0000000000E-02      5.0000000000E+01       kp_pc_inst:0          1.0000000000E+00      0.0000000000E+00       1          
          kp_pc_inst:0_i:55_j:95   log                    factor                4.9999999501E+01      5.0000000000E-02      5.0000000000E+01       kp_pc_inst:0          1.0000000000E+00      0.0000000000E+00       1          
         kp_pc_inst:0_i:55_j:105   log                    factor                4.9999999501E+01      5.0000000000E-02      5.0000000000E+01       kp_pc_inst:0          1.0000000000E+00      0.0000000000E+00       1          
         kp_pc_inst:0_i:55_j:115   log                    factor                4.9999999501E+01      5.0000000000E-02      5.0000000000E+01       kp_pc_inst:0          1.0000000000E+00      0.0000000000E+00       1          
         kp_pc_inst:0_i:55_j:125   log                    factor                4.9999999501E+01      5.0000000000E-02      5.0000000000E+01       kp_pc_inst:0          1.0000000000E+00      0.0000000000E+00       1          
         kp_pc_inst:0_i:55_j:135   log                    factor                4.9999999501E+01      5.0000000000E-02      5.0000000000E+01       kp_pc_inst:0          1.0000000000E+00      0.0000000000E+00       1          
          kp_pc_inst:0_i:65_j:75   log                    factor                1.2986496416E+00      5.0000000000E-02      5.0000000000E+01       kp_pc_inst:0          1.0000000000E+00      0.0000000000E+00       1          
          kp_pc_inst:0_i:65_j:85   log                    factor                6.3125669906E+00      5.0000000000E-02      5.0000000000E+01       kp_pc_inst:0          1.0000000000E+00      0.0000000000E+00       1          
          kp_pc_inst:0_i:65_j:95   log                    factor                4.9999999501E+01      5.0000000000E-02      5.0000000000E+01       kp_pc_inst:0          1.0000000000E+00      0.0000000000E+00       1          
         kp_pc_inst:0_i:65_j:105   log                    factor                4.9999999501E+01      5.0000000000E-02      5.0000000000E+01       kp_pc_inst:0          1.0000000000E+00      0.0000000000E+00       1          
         kp_pc_inst:0_i:65_j:115   log                    factor                4.9999999501E+01      5.0000000000E-02      5.0000000000E+01       kp_pc_inst:0          1.0000000000E+00      0.0000000000E+00       1          
         kp_pc_inst:0_i:65_j:125   log                    factor                4.9999999501E+01      5.0000000000E-02      5.0000000000E+01       kp_pc_inst:0          1.0000000000E+00      0.0000000000E+00       1          
         kp_pc_inst:0_i:65_j:135   log                    factor                4.9999999501E+01      5.0000000000E-02      5.0000000000E+01       kp_pc_inst:0          1.0000000000E+00      0.0000000000E+00       1          
          kp_pc_inst:0_i:75_j:75   log                    factor                1.6488456393E+01      5.0000000000E-02      5.0000000000E+01       kp_pc_inst:0          1.0000000000E+00      0.0000000000E+00       1          
          kp_pc_inst:0_i:75_j:85   log                    factor                8.4527300620E+00      5.0000000000E-02      5.0000000000E+01       kp_pc_inst:0          1.0000000000E+00      0.0000000000E+00       1          
          kp_pc_inst:0_i:75_j:95   log                    factor                2.1377159617E+00      5.0000000000E-02      5.0000000000E+01       kp_pc_inst:0          1.0000000000E+00      0.0000000000E+00       1          
         kp_pc_inst:0_i:75_j:105   log                    factor                4.9999999501E-02      5.0000000000E-02      5.0000000000E+01       kp_pc_inst:0          1.0000000000E+00      0.0000000000E+00       1          
         kp_pc_inst:0_i:75_j:115   log                    factor                4.9999999501E+01      5.0000000000E-02      5.0000000000E+01       kp_pc_inst:0          1.0000000000E+00      0.0000000000E+00       1          
         kp_pc_inst:0_i:75_j:125   log                    factor                4.9999999501E-02      5.0000000000E-02      5.0000000000E+01       kp_pc_inst:0          1.0000000000E+00      0.0000000000E+00       1          
         kp_pc_inst:0_i:75_j:135   log                    factor                4.9999999501E-02      5.0000000000E-02      5.0000000000E+01       kp_pc_inst:0          1.0000000000E+00      0.0000000000E+00       1          
          kp_pc_inst:0_i:85_j:65   log                    factor                4.6035832370E-01      5.0000000000E-02      5.0000000000E+01       kp_pc_inst:0          1.0000000000E+00      0.0000000000E+00       1          
          kp_pc_inst:0_i:85_j:75   log                    factor                6.3336637027E+00      5.0000000000E-02      5.0000000000E+01       kp_pc_inst:0          1.0000000000E+00      0.0000000000E+00       1          
          kp_pc_inst:0_i:85_j:85   log                    factor                2.1509286285E+00      5.0000000000E-02      5.0000000000E+01       kp_pc_inst:0          1.0000000000E+00      0.0000000000E+00       1          
          kp_pc_inst:0_i:85_j:95   log                    factor                7.6199829572E+00      5.0000000000E-02      5.0000000000E+01       kp_pc_inst:0          1.0000000000E+00      0.0000000000E+00       1          
         kp_pc_inst:0_i:85_j:105   log                    factor                4.9999999501E+01      5.0000000000E-02      5.0000000000E+01       kp_pc_inst:0          1.0000000000E+00      0.0000000000E+00       1          
         kp_pc_inst:0_i:85_j:115   log                    factor                4.9999999501E+01      5.0000000000E-02      5.0000000000E+01       kp_pc_inst:0          1.0000000000E+00      0.0000000000E+00       1          
         kp_pc_inst:0_i:85_j:125   log                    factor                2.5490009657E+00      5.0000000000E-02      5.0000000000E+01       kp_pc_inst:0          1.0000000000E+00      0.0000000000E+00       1          