BEGIN options
  BUDGET  FILEOUT  pest_3D_R.cbc
  HEAD  FILEOUT  pest_3D_R.hds
END options

BEGIN period  1
  SAVE  HEAD  LAST
  SAVE  BUDGET  LAST
  PRINT  BUDGET  ALL
END period  1

