BEGIN options
  SAVE_FLOWS
END options

BEGIN dimensions
  MAXBOUND  3559
END dimensions

BEGIN period  1
  1 42 106  -1.47767626E-09
  1 43 104  -1.47767626E-09
  1 43 105  -1.47767626E-09
  1 43 106  -1.47767626E-09
  1 44 102  -1.47767626E-09
  1 44 103  -1.47767626E-09
  1 44 104  -1.47767626E-09
  1 44 105  -1.47767626E-09
  1 44 106  -1.47767626E-09
  1 45 100  -1.47767626E-09
  1 45 101  -1.47767626E-09
  1 45 102  -1.47767626E-09
  1 45 103  -1.47767626E-09
  1 45 104  -1.47767626E-09
  1 45 105  -1.47767626E-09
  1 45 106  -1.47767626E-09
  1 45 107  -1.47767626E-09
  1 46 99  -1.47767626E-09
  1 46 100  -1.47767626E-09
  1 46 101  -1.47767626E-09
  1 46 102  -1.47767626E-09
  1 46 103  -1.47767626E-09
  1 46 104  -1.47767626E-09
  1 46 105  -1.47767626E-09
  1 46 106  -1.47767626E-09
  1 46 107  -1.47767626E-09
  1 47 98  -1.47767626E-09
  1 47 99  -1.47767626E-09
  1 47 100  -1.47767626E-09
  1 47 101  -1.47767626E-09
  1 47 102  -1.47767626E-09
  1 47 103  -1.47767626E-09
  1 47 104  -1.47767626E-09
  1 47 105  -1.47767626E-09
  1 47 106  -1.47767626E-09
  1 47 107  -1.47767626E-09
  1 48 97  -1.47767626E-09
  1 48 98  -1.47767626E-09
  1 48 99  -1.47767626E-09
  1 48 100  -1.47767626E-09
  1 48 101  -1.47767626E-09
  1 48 102  -1.47767626E-09
  1 48 103  -1.47767626E-09
  1 48 104  -1.47767626E-09
  1 48 105  -1.47767626E-09
  1 48 106  -1.47767626E-09
  1 48 107  -1.47767626E-09
  1 49 96  -1.47767626E-09
  1 49 97  -1.47767626E-09
  1 49 98  -1.47767626E-09
  1 49 99  -1.47767626E-09
  1 49 100  -1.47767626E-09
  1 49 101  -1.47767626E-09
  1 49 102  -1.47767626E-09
  1 49 103  -1.47767626E-09
  1 49 104  -1.47767626E-09
  1 49 105  -1.47767626E-09
  1 49 106  -1.47767626E-09
  1 49 107  -1.47767626E-09
  1 50 96  -1.47767626E-09
  1 50 97  -1.47767626E-09
  1 50 98  -1.47767626E-09
  1 50 99  -1.47767626E-09
  1 50 100  -1.47767626E-09
  1 50 101  -1.47767626E-09
  1 50 102  -1.47767626E-09
  1 50 103  -1.47767626E-09
  1 50 104  -1.47767626E-09
  1 50 105  -1.47767626E-09
  1 50 106  -1.47767626E-09
  1 50 107  -1.47767626E-09
  1 51 95  -1.47767626E-09
  1 51 96  -1.47767626E-09
  1 51 97  -1.47767626E-09
  1 51 98  -1.47767626E-09
  1 51 99  -1.47767626E-09
  1 51 100  -1.47767626E-09
  1 51 101  -1.47767626E-09
  1 51 102  -1.47767626E-09
  1 51 103  -1.47767626E-09
  1 51 104  -1.47767626E-09
  1 51 105  -1.47767626E-09
  1 51 106  -1.47767626E-09
  1 51 107  -1.47767626E-09
  1 51 108  -1.47767626E-09
  1 52 95  -1.47767626E-09
  1 52 96  -1.47767626E-09
  1 52 97  -1.47767626E-09
  1 52 98  -1.47767626E-09
  1 52 99  -1.47767626E-09
  1 52 100  -1.47767626E-09
  1 52 101  -1.47767626E-09
  1 52 102  -1.47767626E-09
  1 52 103  -1.47767626E-09
  1 52 104  -1.47767626E-09
  1 52 105  -1.47767626E-09
  1 52 106  -1.47767626E-09
  1 52 107  -1.47767626E-09
  1 52 108  -1.47767626E-09
  1 53 95  -1.47767626E-09
  1 53 96  -1.47767626E-09
  1 53 97  -1.47767626E-09
  1 53 98  -1.47767626E-09
  1 53 99  -1.47767626E-09
  1 53 100  -1.47767626E-09
  1 53 101  -1.47767626E-09
  1 53 102  -1.47767626E-09
  1 53 103  -1.47767626E-09
  1 53 104  -1.47767626E-09
  1 53 105  -1.47767626E-09
  1 53 106  -1.47767626E-09
  1 53 107  -1.47767626E-09
  1 53 108  -1.47767626E-09
  1 54 95  -1.47767626E-09
  1 54 96  -1.47767626E-09
  1 54 97  -1.47767626E-09
  1 54 98  -1.47767626E-09
  1 54 99  -1.47767626E-09
  1 54 100  -1.47767626E-09
  1 54 101  -1.47767626E-09
  1 54 102  -1.47767626E-09
  1 54 103  -1.47767626E-09
  1 54 104  -1.47767626E-09
  1 54 105  -1.47767626E-09
  1 54 106  -1.47767626E-09
  1 54 107  -1.47767626E-09
  1 54 108  -1.47767626E-09
  1 55 95  -1.47767626E-09
  1 55 96  -1.47767626E-09
  1 55 97  -1.47767626E-09
  1 55 98  -1.47767626E-09
  1 55 99  -1.47767626E-09
  1 55 100  -1.47767626E-09
  1 55 101  -1.47767626E-09
  1 55 102  -1.47767626E-09
  1 55 103  -1.47767626E-09
  1 55 104  -1.47767626E-09
  1 55 105  -1.47767626E-09
  1 55 106  -1.47767626E-09
  1 55 107  -1.47767626E-09
  1 55 108  -1.47767626E-09
  1 56 95  -1.47767626E-09
  1 56 96  -1.47767626E-09
  1 56 97  -1.47767626E-09
  1 56 98  -1.47767626E-09
  1 56 99  -1.47767626E-09
  1 56 100  -1.47767626E-09
  1 56 101  -1.47767626E-09
  1 56 102  -1.47767626E-09
  1 56 103  -1.47767626E-09
  1 56 104  -1.47767626E-09
  1 56 105  -1.47767626E-09
  1 56 106  -1.47767626E-09
  1 56 107  -1.47767626E-09
  1 56 108  -1.47767626E-09
  1 57 95  -1.47767626E-09
  1 57 96  -1.47767626E-09
  1 57 97  -1.47767626E-09
  1 57 98  -1.47767626E-09
  1 57 99  -1.47767626E-09
  1 57 100  -1.47767626E-09
  1 57 101  -1.47767626E-09
  1 57 102  -1.47767626E-09
  1 57 103  -1.47767626E-09
  1 57 104  -1.47767626E-09
  1 57 105  -1.47767626E-09
  1 57 106  -1.47767626E-09
  1 57 107  -1.47767626E-09
  1 57 108  -1.47767626E-09
  1 57 109  -1.47767626E-09
  1 58 95  -1.47767626E-09
  1 58 96  -1.47767626E-09
  1 58 97  -1.47767626E-09
  1 58 98  -1.47767626E-09
  1 58 99  -1.47767626E-09
  1 58 100  -1.47767626E-09
  1 58 101  -1.47767626E-09
  1 58 102  -1.47767626E-09
  1 58 103  -1.47767626E-09
  1 58 104  -1.47767626E-09
  1 58 105  -1.47767626E-09
  1 58 106  -1.47767626E-09
  1 58 107  -1.47767626E-09
  1 58 108  -1.47767626E-09
  1 58 109  -1.47767626E-09
  1 59 95  -1.47767626E-09
  1 59 96  -1.47767626E-09
  1 59 97  -1.47767626E-09
  1 59 98  -1.47767626E-09
  1 59 99  -1.47767626E-09
  1 59 100  -1.47767626E-09
  1 59 101  -1.47767626E-09
  1 59 102  -1.47767626E-09
  1 59 103  -1.47767626E-09
  1 59 104  -1.47767626E-09
  1 59 105  -1.47767626E-09
  1 59 106  -1.47767626E-09
  1 59 107  -1.47767626E-09
  1 59 108  -1.47767626E-09
  1 59 109  -1.47767626E-09
  1 60 96  -1.47767626E-09
  1 60 97  -1.47767626E-09
  1 60 98  -1.47767626E-09
  1 60 99  -1.47767626E-09
  1 60 100  -1.47767626E-09
  1 60 101  -1.47767626E-09
  1 60 102  -1.47767626E-09
  1 60 103  -1.47767626E-09
  1 60 104  -1.47767626E-09
  1 60 105  -1.47767626E-09
  1 60 106  -1.47767626E-09
  1 60 107  -1.47767626E-09
  1 60 108  -1.47767626E-09
  1 60 109  -1.47767626E-09
  1 61 97  -1.47767626E-09
  1 61 98  -1.47767626E-09
  1 61 99  -1.47767626E-09
  1 61 100  -1.47767626E-09
  1 61 101  -1.47767626E-09
  1 61 102  -1.47767626E-09
  1 61 103  -1.47767626E-09
  1 61 104  -1.47767626E-09
  1 61 105  -1.47767626E-09
  1 61 106  -1.47767626E-09
  1 61 107  -1.47767626E-09
  1 61 108  -1.47767626E-09
  1 61 109  -1.47767626E-09
  1 61 110  -1.47767626E-09
  1 62 97  -1.47767626E-09
  1 62 98  -1.47767626E-09
  1 62 99  -1.47767626E-09
  1 62 100  -1.47767626E-09
  1 62 101  -1.47767626E-09
  1 62 102  -1.47767626E-09
  1 62 103  -1.47767626E-09
  1 62 104  -1.47767626E-09
  1 62 105  -1.47767626E-09
  1 62 106  -1.47767626E-09
  1 62 107  -1.47767626E-09
  1 62 108  -1.47767626E-09
  1 62 109  -1.47767626E-09
  1 62 110  -1.47767626E-09
  1 62 111  -1.47767626E-09
  1 62 112  -1.47767626E-09
  1 63 97  -1.47767626E-09
  1 63 98  -1.47767626E-09
  1 63 99  -1.47767626E-09
  1 63 100  -1.47767626E-09
  1 63 101  -1.47767626E-09
  1 63 102  -1.47767626E-09
  1 63 103  -1.47767626E-09
  1 63 104  -1.47767626E-09
  1 63 105  -1.47767626E-09
  1 63 106  -1.47767626E-09
  1 63 107  -1.47767626E-09
  1 63 108  -1.47767626E-09
  1 63 109  -1.47767626E-09
  1 63 110  -1.47767626E-09
  1 63 111  -1.47767626E-09
  1 63 112  -1.47767626E-09
  1 63 113  -1.47767626E-09
  1 64 98  -1.47767626E-09
  1 64 99  -1.47767626E-09
  1 64 100  -1.47767626E-09
  1 64 101  -1.47767626E-09
  1 64 102  -1.47767626E-09
  1 64 103  -1.47767626E-09
  1 64 104  -1.47767626E-09
  1 64 105  -1.47767626E-09
  1 64 106  -1.47767626E-09
  1 64 107  -1.47767626E-09
  1 64 108  -1.47767626E-09
  1 64 109  -1.47767626E-09
  1 64 110  -1.47767626E-09
  1 64 111  -1.47767626E-09
  1 64 112  -1.47767626E-09
  1 64 113  -1.47767626E-09
  1 64 114  -1.47767626E-09
  1 65 99  -1.47767626E-09
  1 65 100  -1.47767626E-09
  1 65 101  -1.47767626E-09
  1 65 102  -1.47767626E-09
  1 65 103  -1.47767626E-09
  1 65 104  -1.47767626E-09
  1 65 105  -1.47767626E-09
  1 65 106  -1.47767626E-09
  1 65 107  -1.47767626E-09
  1 65 108  -1.47767626E-09
  1 65 109  -1.47767626E-09
  1 65 110  -1.47767626E-09
  1 65 111  -1.47767626E-09
  1 65 112  -1.47767626E-09
  1 65 113  -1.47767626E-09
  1 65 114  -1.47767626E-09
  1 65 115  -1.47767626E-09
  1 65 116  -1.47767626E-09
  1 66 75  -1.47767626E-09
  1 66 77  -1.47767626E-09
  1 66 78  -1.47767626E-09
  1 66 83  -1.47767626E-09
  1 66 84  -1.47767626E-09
  1 66 101  -1.47767626E-09
  1 66 102  -1.47767626E-09
  1 66 103  -1.47767626E-09
  1 66 104  -1.47767626E-09
  1 66 105  -1.47767626E-09
  1 66 106  -1.47767626E-09
  1 66 107  -1.47767626E-09
  1 66 108  -1.47767626E-09
  1 66 109  -1.47767626E-09
  1 66 110  -1.47767626E-09
  1 66 111  -1.47767626E-09
  1 66 112  -1.47767626E-09
  1 66 113  -1.47767626E-09
  1 66 114  -1.47767626E-09
  1 66 115  -1.47767626E-09
  1 66 116  -1.47767626E-09
  1 66 117  -1.47767626E-09
  1 66 118  -1.47767626E-09
  1 67 74  -1.47767626E-09
  1 67 75  -1.47767626E-09
  1 67 76  -1.47767626E-09
  1 67 77  -1.47767626E-09
  1 67 82  -1.47767626E-09
  1 67 83  -1.47767626E-09
  1 67 103  -1.47767626E-09
  1 67 104  -1.47767626E-09
  1 67 105  -1.47767626E-09
  1 67 106  -1.47767626E-09
  1 67 107  -1.47767626E-09
  1 67 108  -1.47767626E-09
  1 67 109  -1.47767626E-09
  1 67 110  -1.47767626E-09
  1 67 111  -1.47767626E-09
  1 67 112  -1.47767626E-09
  1 67 113  -1.47767626E-09
  1 67 114  -1.47767626E-09
  1 67 115  -1.47767626E-09
  1 67 116  -1.47767626E-09
  1 67 117  -1.47767626E-09
  1 67 118  -1.47767626E-09
  1 67 119  -1.47767626E-09
  1 67 120  -1.47767626E-09
  1 68 73  -1.47767626E-09
  1 68 74  -1.47767626E-09
  1 68 75  -1.47767626E-09
  1 68 76  -1.47767626E-09
  1 68 77  -1.47767626E-09
  1 68 78  -1.47767626E-09
  1 68 79  -1.47767626E-09
  1 68 80  -1.47767626E-09
  1 68 88  -1.47767626E-09
  1 68 89  -1.47767626E-09
  1 68 90  -1.47767626E-09
  1 68 105  -1.47767626E-09
  1 68 106  -1.47767626E-09
  1 68 107  -1.47767626E-09
  1 68 108  -1.47767626E-09
  1 68 109  -1.47767626E-09
  1 68 110  -1.47767626E-09
  1 68 111  -1.47767626E-09
  1 68 112  -1.47767626E-09
  1 68 113  -1.47767626E-09
  1 68 114  -1.47767626E-09
  1 68 115  -1.47767626E-09
  1 68 116  -1.47767626E-09
  1 68 117  -1.47767626E-09
  1 68 118  -1.47767626E-09
  1 68 119  -1.47767626E-09
  1 68 120  -1.47767626E-09
  1 68 121  -1.47767626E-09
  1 69 73  -8.87874176E-10
  1 69 74  -8.87874176E-10
  1 69 75  -1.47767626E-09
  1 69 76  -1.47767626E-09
  1 69 77  -1.47767626E-09
  1 69 78  -1.47767626E-09
  1 69 79  -1.47767626E-09
  1 69 80  -1.47767626E-09
  1 69 81  -1.47767626E-09
  1 69 88  -1.47767626E-09
  1 69 89  -1.47767626E-09
  1 69 90  -1.47767626E-09
  1 69 108  -1.47767626E-09
  1 69 109  -1.47767626E-09
  1 69 110  -1.47767626E-09
  1 69 111  -1.47767626E-09
  1 69 112  -1.47767626E-09
  1 69 113  -1.47767626E-09
  1 69 114  -1.47767626E-09
  1 69 115  -1.47767626E-09
  1 69 116  -1.47767626E-09
  1 69 117  -1.47767626E-09
  1 69 118  -1.47767626E-09
  1 69 119  -1.47767626E-09
  1 69 120  -1.47767626E-09
  1 69 121  -1.47767626E-09
  1 70 72  -8.87874176E-10
  1 70 73  -8.87874176E-10
  1 70 74  -8.87874176E-10
  1 70 75  -8.87874176E-10
  1 70 76  -1.47767626E-09
  1 70 77  -1.47767626E-09
  1 70 78  -1.47767626E-09
  1 70 79  -1.47767626E-09
  1 70 80  -1.47767626E-09
  1 70 81  -1.47767626E-09
  1 70 87  -1.47767626E-09
  1 70 88  -1.47767626E-09
  1 70 89  -1.47767626E-09
  1 70 90  -1.47767626E-09
  1 70 109  -1.47767626E-09
  1 70 110  -1.47767626E-09
  1 70 111  -1.47767626E-09
  1 70 112  -1.47767626E-09
  1 70 113  -1.47767626E-09
  1 70 114  -1.47767626E-09
  1 70 115  -1.47767626E-09
  1 70 116  -1.47767626E-09
  1 70 117  -1.47767626E-09
  1 70 118  -1.47767626E-09
  1 70 119  -1.47767626E-09
  1 70 120  -1.47767626E-09
  1 70 121  -1.47767626E-09
  1 70 122  -1.47767626E-09
  1 71 72  -8.87874176E-10
  1 71 73  -8.87874176E-10
  1 71 74  -8.87874176E-10
  1 71 75  -8.87874176E-10
  1 71 76  -8.87874176E-10
  1 71 77  -1.47767626E-09
  1 71 78  -1.47767626E-09
  1 71 79  -1.47767626E-09
  1 71 80  -1.47767626E-09
  1 71 81  -1.47767626E-09
  1 71 82  -1.47767626E-09
  1 71 85  -1.47767626E-09
  1 71 86  -1.47767626E-09
  1 71 87  -5.51116194E-09
  1 71 88  -5.51116194E-09
  1 71 89  -5.51116194E-09
  1 71 90  -1.47767626E-09
  1 71 91  -1.47767626E-09
  1 71 92  -5.51116194E-09
  1 71 93  -1.47767626E-09
  1 71 109  -1.47767626E-09
  1 71 110  -1.47767626E-09
  1 71 111  -1.47767626E-09
  1 71 112  -1.47767626E-09
  1 71 113  -1.47767626E-09
  1 71 114  -1.47767626E-09
  1 71 115  -1.47767626E-09
  1 71 116  -1.47767626E-09
  1 71 117  -1.47767626E-09
  1 71 118  -1.47767626E-09
  1 71 119  -1.47767626E-09
  1 71 120  -1.47767626E-09
  1 71 121  -1.47767626E-09
  1 71 122  -1.47767626E-09
  1 72 73  -8.87874176E-10
  1 72 74  -8.87874176E-10
  1 72 75  -8.87874176E-10
  1 72 76  -8.87874176E-10
  1 72 83  -1.47767626E-09
  1 72 84  -1.47767626E-09
  1 72 85  -1.47767626E-09
  1 72 86  -1.47767626E-09
  1 72 87  -1.47767626E-09
  1 72 88  -1.47767626E-09
  1 72 89  -5.51116194E-09
  1 72 90  -5.51116194E-09
  1 72 91  -5.51116194E-09
  1 72 92  -5.51116194E-09
  1 72 93  -5.51116194E-09
  1 72 94  -1.47767626E-09
  1 72 109  -1.47767626E-09
  1 72 110  -1.47767626E-09
  1 72 111  -1.47767626E-09
  1 72 112  -1.47767626E-09
  1 72 113  -1.47767626E-09
  1 72 114  -1.47767626E-09
  1 72 115  -1.47767626E-09
  1 72 116  -1.47767626E-09
  1 72 117  -1.47767626E-09
  1 72 118  -1.47767626E-09
  1 72 119  -1.47767626E-09
  1 72 120  -1.47767626E-09
  1 72 121  -1.47767626E-09
  1 72 122  -1.47767626E-09
  1 72 123  -1.47767626E-09
  1 73 74  -8.87874176E-10
  1 73 75  -8.87874176E-10
  1 73 76  -8.87874176E-10
  1 73 83  -1.47767626E-09
  1 73 84  -1.47767626E-09
  1 73 85  -1.47767626E-09
  1 73 86  -1.47767626E-09
  1 73 87  -1.47767626E-09
  1 73 88  -1.47767626E-09
  1 73 89  -1.47767626E-09
  1 73 90  -1.47767626E-09
  1 73 91  -1.47767626E-09
  1 73 92  -1.47767626E-09
  1 73 93  -1.47767626E-09
  1 73 94  -1.47767626E-09
  1 73 95  -1.47767626E-09
  1 73 98  -1.47767626E-09
  1 73 99  -1.47767626E-09
  1 73 100  -1.47767626E-09
  1 73 101  -1.47767626E-09
  1 73 109  -1.47767626E-09
  1 73 110  -1.47767626E-09
  1 73 111  -1.47767626E-09
  1 73 112  -1.47767626E-09
  1 73 113  -1.47767626E-09
  1 73 114  -1.47767626E-09
  1 73 115  -1.47767626E-09
  1 73 116  -1.47767626E-09
  1 73 117  -1.47767626E-09
  1 73 118  -1.47767626E-09
  1 73 119  -1.47767626E-09
  1 73 120  -1.47767626E-09
  1 73 121  -1.47767626E-09
  1 73 122  -1.47767626E-09
  1 73 123  -1.47767626E-09
  1 74 76  -8.87874176E-10
  1 74 87  -1.47767626E-09
  1 74 88  -1.47767626E-09
  1 74 89  -1.47767626E-09
  1 74 90  -1.47767626E-09
  1 74 91  -1.47767626E-09
  1 74 92  -1.47767626E-09
  1 74 93  -1.47767626E-09
  1 74 94  -1.47767626E-09
  1 74 95  -5.51116194E-09
  1 74 96  -1.47767626E-09
  1 74 97  -1.47767626E-09
  1 74 98  -5.51116194E-09
  1 74 99  -5.51116194E-09
  1 74 100  -5.51116194E-09
  1 74 101  -1.47767626E-09
  1 74 102  -1.47767626E-09
  1 74 109  -1.47767626E-09
  1 74 110  -1.47767626E-09
  1 74 111  -1.47767626E-09
  1 74 112  -1.47767626E-09
  1 74 113  -1.47767626E-09
  1 74 114  -1.47767626E-09
  1 74 115  -1.47767626E-09
  1 74 116  -1.47767626E-09
  1 74 117  -1.47767626E-09
  1 74 118  -1.47767626E-09
  1 74 119  -1.47767626E-09
  1 74 120  -1.47767626E-09
  1 74 121  -1.47767626E-09
  1 74 122  -1.47767626E-09
  1 74 123  -1.47767626E-09
  1 75 86  -1.47767626E-09
  1 75 87  -1.47767626E-09
  1 75 88  -1.47767626E-09
  1 75 89  -1.47767626E-09
  1 75 90  -1.47767626E-09
  1 75 91  -1.47767626E-09
  1 75 92  -1.47767626E-09
  1 75 93  -1.47767626E-09
  1 75 94  -1.47767626E-09
  1 75 95  -5.51116194E-09
  1 75 96  -5.51116194E-09
  1 75 97  -5.51116194E-09
  1 75 98  -5.51116194E-09
  1 75 99  -5.51116194E-09
  1 75 100  -5.51116194E-09
  1 75 101  -1.47767626E-09
  1 75 102  -1.47767626E-09
  1 75 103  -1.47767626E-09
  1 75 104  -1.47767626E-09
  1 75 105  -1.47767626E-09
  1 75 106  -1.47767626E-09
  1 75 107  -1.47767626E-09
  1 75 108  -1.47767626E-09
  1 75 109  -1.47767626E-09
  1 75 110  -1.47767626E-09
  1 75 111  -1.47767626E-09
  1 75 112  -1.47767626E-09
  1 75 113  -1.47767626E-09
  1 75 114  -1.47767626E-09
  1 75 115  -1.47767626E-09
  1 75 116  -1.47767626E-09
  1 75 117  -1.47767626E-09
  1 75 118  -1.47767626E-09
  1 75 119  -1.47767626E-09
  1 75 120  -1.47767626E-09
  1 75 121  -1.47767626E-09
  1 75 122  -1.47767626E-09
  1 75 123  -1.47767626E-09
  1 76 87  -1.47767626E-09
  1 76 88  -1.47767626E-09
  1 76 89  -1.47767626E-09
  1 76 90  -1.47767626E-09
  1 76 91  -1.47767626E-09
  1 76 92  -1.47767626E-09
  1 76 93  -1.47767626E-09
  1 76 94  -1.47767626E-09
  1 76 95  -1.47767626E-09
  1 76 96  -5.51116194E-09
  1 76 97  -5.51116194E-09
  1 76 98  -5.51116194E-09
  1 76 99  -5.51116194E-09
  1 76 101  -1.47767626E-09
  1 76 102  -1.47767626E-09
  1 76 103  -1.47767626E-09
  1 76 104  -1.47767626E-09
  1 76 105  -1.47767626E-09
  1 76 106  -1.47767626E-09
  1 76 107  -1.47767626E-09
  1 76 108  -1.47767626E-09
  1 76 109  -1.47767626E-09
  1 76 110  -1.47767626E-09
  1 76 111  -1.47767626E-09
  1 76 112  -1.47767626E-09
  1 76 113  -1.47767626E-09
  1 76 114  -1.47767626E-09
  1 76 115  -1.47767626E-09
  1 76 116  -1.47767626E-09
  1 76 117  -1.47767626E-09
  1 76 118  -1.47767626E-09
  1 76 119  -1.47767626E-09
  1 76 120  -1.47767626E-09
  1 76 121  -1.47767626E-09
  1 76 122  -1.47767626E-09
  1 76 123  -1.47767626E-09
  1 77 88  -1.47767626E-09
  1 77 89  -1.47767626E-09
  1 77 90  -1.47767626E-09
  1 77 91  -1.47767626E-09
  1 77 92  -1.47767626E-09
  1 77 93  -1.47767626E-09
  1 77 94  -1.47767626E-09
  1 77 95  -1.47767626E-09
  1 77 96  -1.47767626E-09
  1 77 97  -1.47767626E-09
  1 77 98  -1.47767626E-09
  1 77 99  -1.47767626E-09
  1 77 100  -1.47767626E-09
  1 77 101  -1.47767626E-09
  1 77 102  -1.47767626E-09
  1 77 103  -1.47767626E-09
  1 77 104  -1.47767626E-09
  1 77 105  -1.47767626E-09
  1 77 106  -1.47767626E-09
  1 77 107  -1.61719936E-10
  1 77 108  -1.47767626E-09
  1 77 109  -1.47767626E-09
  1 77 110  -1.47767626E-09
  1 77 111  -1.47767626E-09
  1 77 112  -1.47767626E-09
  1 77 113  -1.47767626E-09
  1 77 114  -1.47767626E-09
  1 77 115  -1.47767626E-09
  1 77 116  -1.47767626E-09
  1 77 117  -1.47767626E-09
  1 77 118  -1.47767626E-09
  1 77 119  -1.47767626E-09
  1 77 120  -1.47767626E-09
  1 77 121  -1.47767626E-09
  1 77 122  -1.47767626E-09
  1 77 123  -1.47767626E-09
  1 78 91  -1.47767626E-09
  1 78 92  -1.47767626E-09
  1 78 93  -1.47767626E-09
  1 78 94  -1.47767626E-09
  1 78 95  -1.47767626E-09
  1 78 96  -1.47767626E-09
  1 78 97  -1.47767626E-09
  1 78 98  -1.47767626E-09
  1 78 99  -1.47767626E-09
  1 78 100  -1.47767626E-09
  1 78 101  -1.47767626E-09
  1 78 102  -1.47767626E-09
  1 78 103  -1.47767626E-09
  1 78 104  -1.47767626E-09
  1 78 105  -1.47767626E-09
  1 78 106  -1.47767626E-09
  1 78 107  -1.61719936E-10
  1 78 108  -1.61719936E-10
  1 78 109  -1.61719936E-10
  1 78 110  -1.61719936E-10
  1 78 111  -1.47767626E-09
  1 78 112  -1.47767626E-09
  1 78 113  -1.47767626E-09
  1 78 114  -1.47767626E-09
  1 78 115  -1.47767626E-09
  1 78 116  -1.47767626E-09
  1 78 117  -1.47767626E-09
  1 78 118  -1.47767626E-09
  1 78 119  -1.47767626E-09
  1 78 120  -1.47767626E-09
  1 78 121  -1.47767626E-09
  1 78 122  -1.47767626E-09
  1 78 123  -1.47767626E-09
  1 79 92  -1.47767626E-09
  1 79 93  -1.47767626E-09
  1 79 94  -1.47767626E-09
  1 79 95  -1.47767626E-09
  1 79 96  -1.47767626E-09
  1 79 97  -1.47767626E-09
  1 79 98  -1.47767626E-09
  1 79 99  -1.47767626E-09
  1 79 100  -1.47767626E-09
  1 79 101  -1.47767626E-09
  1 79 102  -1.47767626E-09
  1 79 103  -1.47767626E-09
  1 79 104  -1.47767626E-09
  1 79 105  -1.47767626E-09
  1 79 106  -1.47767626E-09
  1 79 107  -1.61719936E-10
  1 79 108  -1.61719936E-10
  1 79 109  -1.47767626E-09
  1 79 110  -1.47767626E-09
  1 79 111  -1.47767626E-09
  1 79 112  -1.47767626E-09
  1 79 113  -1.47767626E-09
  1 79 114  -1.47767626E-09
  1 79 115  -1.47767626E-09
  1 79 116  -1.47767626E-09
  1 79 117  -1.47767626E-09
  1 79 118  -1.47767626E-09
  1 79 119  -1.47767626E-09
  1 79 120  -1.47767626E-09
  1 79 121  -1.47767626E-09
  1 79 122  -1.47767626E-09
  1 79 123  -1.47767626E-09
  1 80 95  -1.47767626E-09
  1 80 96  -1.47767626E-09
  1 80 97  -1.47767626E-09
  1 80 98  -1.47767626E-09
  1 80 99  -1.47767626E-09
  1 80 100  -1.47767626E-09
  1 80 101  -1.47767626E-09
  1 80 102  -1.47767626E-09
  1 80 103  -1.47767626E-09
  1 80 104  -1.47767626E-09
  1 80 105  -1.47767626E-09
  1 80 106  -1.47767626E-09
  1 80 107  -1.47767626E-09
  1 80 108  -1.47767626E-09
  1 80 109  -1.47767626E-09
  1 80 110  -1.47767626E-09
  1 80 111  -1.47767626E-09
  1 80 112  -1.47767626E-09
  1 80 113  -1.47767626E-09
  1 80 114  -1.47767626E-09
  1 80 115  -1.47767626E-09
  1 80 116  -1.47767626E-09
  1 80 117  -1.47767626E-09
  1 80 118  -1.47767626E-09
  1 80 119  -1.47767626E-09
  1 80 120  -1.47767626E-09
  1 80 121  -1.47767626E-09
  1 80 122  -1.47767626E-09
  1 80 123  -1.47767626E-09
  1 81 96  -1.47767626E-09
  1 81 97  -1.47767626E-09
  1 81 98  -1.47767626E-09
  1 81 99  -1.47767626E-09
  1 81 100  -1.47767626E-09
  1 81 101  -1.47767626E-09
  1 81 102  -1.47767626E-09
  1 81 103  -1.47767626E-09
  1 81 104  -1.47767626E-09
  1 81 105  -1.47767626E-09
  1 81 106  -1.47767626E-09
  1 81 107  -1.47767626E-09
  1 81 108  -1.47767626E-09
  1 81 109  -1.47767626E-09
  1 81 110  -1.47767626E-09
  1 81 111  -1.47767626E-09
  1 81 112  -1.47767626E-09
  1 81 113  -1.47767626E-09
  1 81 114  -1.47767626E-09
  1 81 115  -1.47767626E-09
  1 81 116  -1.47767626E-09
  1 81 117  -1.47767626E-09
  1 81 118  -1.47767626E-09
  1 81 119  -1.47767626E-09
  1 81 120  -1.47767626E-09
  1 81 121  -1.47767626E-09
  1 81 122  -1.47767626E-09
  1 82 101  -1.47767626E-09
  1 82 102  -1.47767626E-09
  1 82 103  -1.47767626E-09
  1 82 104  -1.47767626E-09
  1 82 105  -1.47767626E-09
  1 82 106  -1.47767626E-09
  1 82 107  -1.47767626E-09
  1 82 108  -1.47767626E-09
  1 82 109  -1.47767626E-09
  1 82 110  -1.47767626E-09
  1 82 111  -1.47767626E-09
  1 82 112  -1.47767626E-09
  1 82 113  -1.47767626E-09
  1 82 114  -1.47767626E-09
  1 82 115  -1.47767626E-09
  1 82 116  -1.47767626E-09
  1 82 117  -1.47767626E-09
  1 82 118  -1.47767626E-09
  1 82 119  -1.47767626E-09
  1 82 120  -1.47767626E-09
  1 82 121  -1.47767626E-09
  1 83 102  -1.47767626E-09
  1 83 103  -1.47767626E-09
  1 83 104  -1.47767626E-09
  1 83 105  -1.47767626E-09
  1 83 106  -1.47767626E-09
  1 83 107  -1.47767626E-09
  1 83 108  -1.47767626E-09
  1 83 109  -1.47767626E-09
  1 83 110  -1.47767626E-09
  1 83 111  -1.47767626E-09
  1 83 112  -1.47767626E-09
  1 83 113  -1.47767626E-09
  1 83 114  -1.47767626E-09
  1 83 115  -1.47767626E-09
  1 83 116  -1.47767626E-09
  1 83 117  -1.47767626E-09
  1 83 118  -1.47767626E-09
  1 83 119  -1.47767626E-09
  1 83 120  -1.47767626E-09
  1 83 121  -1.47767626E-09
  1 84 99  -3.07584976E-10
  1 84 100  -3.07584976E-10
  1 84 103  -1.47767626E-09
  1 84 104  -1.47767626E-09
  1 84 105  -1.47767626E-09
  1 84 106  -1.47767626E-09
  1 84 107  -1.47767626E-09
  1 84 108  -1.47767626E-09
  1 84 109  -1.47767626E-09
  1 84 110  -1.47767626E-09
  1 84 111  -1.47767626E-09
  1 84 112  -1.47767626E-09
  1 84 113  -1.47767626E-09
  1 84 114  -1.47767626E-09
  1 84 115  -1.47767626E-09
  1 84 116  -1.47767626E-09
  1 84 117  -1.47767626E-09
  1 84 118  -1.47767626E-09
  1 84 119  -1.47767626E-09
  1 84 120  -1.47767626E-09
  1 85 97  -3.07584976E-10
  1 85 98  -3.07584976E-10
  1 85 99  -3.07584976E-10
  1 85 100  -3.07584976E-10
  1 85 101  -3.07584976E-10
  1 85 103  -1.47767626E-09
  1 85 104  -1.47767626E-09
  1 85 105  -1.47767626E-09
  1 85 106  -1.47767626E-09
  1 85 107  -1.47767626E-09
  1 85 108  -1.47767626E-09
  1 85 109  -1.47767626E-09
  1 85 110  -1.47767626E-09
  1 85 111  -1.47767626E-09
  1 85 112  -1.47767626E-09
  1 85 113  -1.47767626E-09
  1 85 114  -1.47767626E-09
  1 85 115  -1.47767626E-09
  1 85 116  -1.47767626E-09
  1 85 117  -1.47767626E-09
  1 85 118  -1.47767626E-09
  1 85 119  -1.47767626E-09
  1 85 120  -1.47767626E-09
  1 86 96  -3.07584976E-10
  1 86 97  -3.07584976E-10
  1 86 98  -3.07584976E-10
  1 86 99  -3.07584976E-10
  1 86 100  -3.07584976E-10
  1 86 101  -3.07584976E-10
  1 86 102  -3.07584976E-10
  1 86 103  -1.47767626E-09
  1 86 104  -1.47767626E-09
  1 86 105  -1.47767626E-09
  1 86 106  -1.47767626E-09
  1 86 107  -1.47767626E-09
  1 86 108  -1.47767626E-09
  1 86 109  -1.47767626E-09
  1 86 110  -1.47767626E-09
  1 86 111  -1.47767626E-09
  1 86 112  -1.47767626E-09
  1 86 113  -1.47767626E-09
  1 86 114  -1.47767626E-09
  1 86 115  -1.47767626E-09
  1 86 116  -1.47767626E-09
  1 86 117  -1.47767626E-09
  1 86 118  -1.47767626E-09
  1 86 119  -1.47767626E-09
  1 86 120  -1.47767626E-09
  1 87 95  -3.07584976E-10
  1 87 96  -3.07584976E-10
  1 87 97  -3.07584976E-10
  1 87 98  -3.07584976E-10
  1 87 99  -3.07584976E-10
  1 87 105  -1.47767626E-09
  1 87 106  -1.47767626E-09
  1 87 107  -1.47767626E-09
  1 87 108  -1.47767626E-09
  1 87 109  -1.47767626E-09
  1 87 110  -1.47767626E-09
  1 87 111  -1.47767626E-09
  1 87 112  -1.47767626E-09
  1 87 113  -1.47767626E-09
  1 87 114  -1.47767626E-09
  1 87 115  -1.47767626E-09
  1 87 116  -1.47767626E-09
  1 87 117  -1.47767626E-09
  1 87 118  -1.47767626E-09
  1 87 119  -1.47767626E-09
  1 87 120  -1.47767626E-09
  1 88 95  -3.07584976E-10
  1 88 96  -3.07584976E-10
  1 88 97  -3.07584976E-10
  1 88 98  -3.07584976E-10
  1 88 105  -1.47767626E-09
  1 88 106  -1.47767626E-09
  1 88 107  -1.47767626E-09
  1 88 108  -1.47767626E-09
  1 88 109  -1.47767626E-09
  1 88 110  -1.47767626E-09
  1 88 111  -1.47767626E-09
  1 88 112  -1.47767626E-09
  1 88 113  -1.47767626E-09
  1 88 114  -1.47767626E-09
  1 88 115  -1.47767626E-09
  1 88 116  -1.47767626E-09
  1 88 117  -1.47767626E-09
  1 88 118  -1.47767626E-09
  1 88 119  -1.47767626E-09
  1 88 120  -1.47767626E-09
  1 89 95  -3.07584976E-10
  1 89 96  -3.07584976E-10
  1 89 97  -3.07584976E-10
  1 89 98  -3.07584976E-10
  1 89 105  -1.47767626E-09
  1 89 106  -1.47767626E-09
  1 89 107  -1.47767626E-09
  1 89 108  -1.47767626E-09
  1 89 109  -1.47767626E-09
  1 89 110  -1.47767626E-09
  1 89 111  -1.47767626E-09
  1 89 112  -1.47767626E-09
  1 89 113  -1.47767626E-09
  1 89 114  -1.47767626E-09
  1 89 115  -1.47767626E-09
  1 89 116  -1.47767626E-09
  1 89 117  -1.47767626E-09
  1 89 118  -1.47767626E-09
  1 89 119  -1.47767626E-09
  1 89 120  -1.47767626E-09
  1 90 94  -3.07584976E-10
  1 90 95  -3.07584976E-10
  1 90 96  -3.07584976E-10
  1 90 97  -3.07584976E-10
  1 90 98  -3.07584976E-10
  1 90 104  -1.47767626E-09
  1 90 105  -1.47767626E-09
  1 90 106  -1.47767626E-09
  1 90 107  -1.47767626E-09
  1 90 108  -1.47767626E-09
  1 90 109  -1.47767626E-09
  1 90 110  -1.47767626E-09
  1 90 111  -1.47767626E-09
  1 90 112  -1.47767626E-09
  1 90 113  -1.47767626E-09
  1 90 114  -1.47767626E-09
  1 90 115  -1.47767626E-09
  1 90 116  -1.47767626E-09
  1 90 117  -1.47767626E-09
  1 90 118  -1.47767626E-09
  1 90 119  -1.47767626E-09
  1 90 120  -1.47767626E-09
  1 90 124  -1.47767626E-09
  1 90 125  -1.47767626E-09
  1 91 94  -3.07584976E-10
  1 91 95  -3.07584976E-10
  1 91 96  -3.07584976E-10
  1 91 97  -3.07584976E-10
  1 91 99  -1.47767626E-09
  1 91 103  -1.47767626E-09
  1 91 104  -1.47767626E-09
  1 91 105  -1.47767626E-09
  1 91 106  -1.47767626E-09
  1 91 107  -1.47767626E-09
  1 91 108  -1.47767626E-09
  1 91 109  -1.47767626E-09
  1 91 110  -1.47767626E-09
  1 91 111  -1.47767626E-09
  1 91 112  -1.47767626E-09
  1 91 113  -1.47767626E-09
  1 91 114  -1.47767626E-09
  1 91 115  -1.47767626E-09
  1 91 116  -1.47767626E-09
  1 91 117  -1.47767626E-09
  1 91 118  -1.47767626E-09
  1 91 119  -1.47767626E-09
  1 91 120  -1.47767626E-09
  1 91 121  -1.47767626E-09
  1 91 122  -1.47767626E-09
  1 91 123  -1.47767626E-09
  1 91 124  -1.47767626E-09
  1 91 125  -1.47767626E-09
  1 91 126  -1.47767626E-09
  1 91 127  -1.47767626E-09
  1 92 92  -3.07584976E-10
  1 92 93  -3.07584976E-10
  1 92 94  -3.07584976E-10
  1 92 95  -3.07584976E-10
  1 92 96  -3.07584976E-10
  1 92 97  -1.47767626E-09
  1 92 98  -1.47767626E-09
  1 92 99  -1.47767626E-09
  1 92 100  -1.47767626E-09
  1 92 101  -1.47767626E-09
  1 92 102  -1.47767626E-09
  1 92 103  -1.47767626E-09
  1 92 104  -1.47767626E-09
  1 92 105  -1.47767626E-09
  1 92 106  -1.47767626E-09
  1 92 107  -1.47767626E-09
  1 92 108  -1.47767626E-09
  1 92 109  -1.47767626E-09
  1 92 110  -1.47767626E-09
  1 92 111  -1.47767626E-09
  1 92 112  -1.47767626E-09
  1 92 113  -1.47767626E-09
  1 92 114  -1.47767626E-09
  1 92 115  -1.47767626E-09
  1 92 116  -1.47767626E-09
  1 92 117  -1.47767626E-09
  1 92 118  -1.47767626E-09
  1 92 119  -1.47767626E-09
  1 92 120  -1.47767626E-09
  1 92 121  -1.47767626E-09
  1 92 122  -1.47767626E-09
  1 92 123  -1.47767626E-09
  1 92 124  -1.47767626E-09
  1 92 125  -1.47767626E-09
  1 92 126  -1.47767626E-09
  1 92 127  -1.47767626E-09
  1 93 92  -3.07584976E-10
  1 93 93  -3.07584976E-10
  1 93 94  -3.07584976E-10
  1 93 95  -3.07584976E-10
  1 93 96  -1.47767626E-09
  1 93 97  -1.47767626E-09
  1 93 98  -1.47767626E-09
  1 93 99  -1.47767626E-09
  1 93 100  -1.47767626E-09
  1 93 101  -1.47767626E-09
  1 93 102  -1.47767626E-09
  1 93 103  -1.47767626E-09
  1 93 104  -1.47767626E-09
  1 93 105  -1.47767626E-09
  1 93 106  -1.47767626E-09
  1 93 107  -1.47767626E-09
  1 93 108  -1.47767626E-09
  1 93 109  -1.47767626E-09
  1 93 110  -1.47767626E-09
  1 93 111  -1.47767626E-09
  1 93 112  -1.47767626E-09
  1 93 113  -1.47767626E-09
  1 93 114  -1.47767626E-09
  1 93 115  -1.47767626E-09
  1 93 116  -1.47767626E-09
  1 93 117  -1.47767626E-09
  1 93 118  -1.47767626E-09
  1 93 119  -1.47767626E-09
  1 93 120  -1.47767626E-09
  1 93 121  -1.47767626E-09