BEGIN options
  SAVE_FLOWS
END options

BEGIN dimensions
  MAXBOUND  154
END dimensions

BEGIN period  1
  1 142 114      -0.01716086
  1 155 85      -0.00379665
  1 87 99      -0.01852448
  1 116 7      -0.00924978
  1 152 91      -0.00560458
  1 150 92      -0.00367526
  1 152 91      -0.00879287
  1 152 92      -0.01485769
  1 140 107      -0.00368760
  1 138 110      -0.02072073
  1 137 121      -0.05300685
  1 103 30      -0.06838499
  1 162 77  -6.31151700E-04
  1 104 26  -7.87037037E-05
  1 129 117      -0.00911726
  1 129 117      -0.00235661
  1 129 117      -0.00625856
  1 129 117      -0.00945152
  1 129 117      -0.01003656
  1 109 42      -0.11600828
  1 104 43      -0.00406028
  1 105 40      -0.01522726
  1 149 99      -0.01106298
  1 120 49      -0.00789342
  1 171 62      -0.00790512
  1 95 127  -2.45846017E-04
  1 95 127  -2.05701421E-04
  1 46 129      -0.01019980
  1 46 129      -0.00972501
  1 122 113      -0.00948354
  1 134 88      -0.00822089
  1 134 86      -0.00279408
  1 100 70      -0.00760195
  1 87 99      -0.01063921
  1 106 103      -0.01802905
  1 103 101      -0.01352007
  1 97 120      -0.00839365
  1 96 121      -0.00407788
  1 105 127      -0.00747121
  1 98 125      -0.01047974
  1 104 118      -0.01169032
  1 96 119      -0.00828057
  1 118 74  -2.17846271E-05
  1 114 73      -0.01117596
  1 99 44      -0.00407300
  1 127 105      -0.00438981
  1 139 112      -0.00283584
  1 140 107      -0.01708222
  1 136 100      -0.00789346
  1 72 73      -0.00887373
  1 143 57      -0.01119482
  1 138 118      -0.01079354
  1 137 121      -0.01234592
  1 101 35      -0.01389374
  1 103 30      -0.02161574
  1 133 102      -0.01212129
  1 135 98      -0.00909358
  1 134 97      -0.00828494
  1 132 95      -0.00733206
  1 129 95      -0.00729154
  1 103 27      -0.00353678
  1 101 81      -0.00901164
  1 99 92  -3.67833587E-06
  1 94 89      -0.00358688
  1 107 92      -0.01218246
  1 91 88      -0.00565088
  1 80 78      -0.00320329
  1 102 60  -5.06659056E-04
  1 96 63      -0.01101376
  1 101 55      -0.00893690
  1 88 94  -7.36681887E-04
  1 87 94      -0.00271100
  1 80 92      -0.01688559
  1 123 82      -0.00620316
  1 121 86      -0.00407132
  1 127 69      -0.01136771
  1 77 86      -0.01678393
  1 70 83      -0.00870687
  1 78 83      -0.00894882
  1 72 93      -0.00256355
  1 130 117      -0.00450289
  1 95 73      -0.01088401
  1 95 76      -0.01008333
  1 98 82      -0.02338258
  1 93 72      -0.00905410
  1 103 41      -0.00204871
  1 103 41      -0.02730654
  1 105 40      -0.02256938
  1 103 43      -0.04297939
  1 108 47      -0.00362649
  1 68 110      -0.00529097
  1 67 111      -0.00433143
  1 64 116      -0.01470605
  1 64 116      -0.00751522
  1 71 109      -0.00452353
  1 67 111      -0.01112833
  1 70 109      -0.00641521
  1 73 114      -0.01609821
  1 73 115      -0.00422130
  1 67 117      -0.00937288
  1 70 119      -0.00599505
  1 66 121      -0.00853244
  1 68 118      -0.00443610
  1 90 122      -0.00433229
  1 88 124      -0.01826113
  1 85 127      -0.00881837
  1 110 116      -0.00779344
  1 109 115      -0.00913759
  1 114 103      -0.00665690
  1 114 102      -0.00790589
  1 50 97      -0.00688118
  1 51 97  -1.54268138E-04
  1 105 66      -0.01462427
  1 136 55      -0.00100285
  1 135 53      -0.01167057
  1 122 106      -0.00289422
  1 120 49      -0.01014231
  1 124 51      -0.01972707
  1 78 118      -0.00495412
  1 78 121      -0.00477559
  1 78 118      -0.00495294
  1 113 74      -0.02368861
  1 132 63      -0.00677010
  1 89 115      -0.00245798
  1 89 116      -0.00294803
  1 123 95      -0.01084928
  1 103 65      -0.00383454
  1 132 86  -9.30365297E-04
  1 106 102      -0.00120240
  1 59 94  -2.16197362E-04
  1 123 52      -0.00106215
  1 111 72      -0.00116920
  1 105 82  -1.74530695E-04
  1 70 84      -0.00150520
  1 82 120      -0.00385813
  1 135 112      -0.00134434
  1 65 93  -7.59069001E-04
  1 152 93  -3.54832572E-04
  1 99 82  -4.27416286E-04
  1 59 100  -4.81988838E-04
  1 161 85      -0.00351195
  1 94 105      -0.00106317
  1 92 100  -1.57978184E-04
  1 116 7      -0.00102645
  1 160 75  -3.91742770E-04
  1 134 113  -6.49670218E-04
  1 100 25  -1.39681634E-04
  1 87 93  -1.47989599E-04
  1 105 82  -6.03754439E-05
  1 90 122  -3.85020294E-04
  1 145 122  -3.55149670E-04
  1 155 122  -2.94457128E-04
  1 141 123  -6.97615424E-05
  1 69 81  -5.57141045E-05
END period  1

