BEGIN griddata
  strt
    INTERNAL  FACTOR  1.0
      9950.00000000    9950.00000000    9950.00000000    9950.00000000    9950.00000000    9950.00000000    9950.00000000    9950.00000000    9950.00000000    9950.00000000    9950.00000000    9950.00000000    9950.00000000    9950.00000000    9950.00000000    9950.00000000    9950.00000000    9950.00000000    9950.00000000    9950.00000000
      9950.00000000    9950.00000000    9950.00000000    9950.00000000    9950.00000000    9950.00000000    9950.00000000    9950.00000000    9950.00000000    9950.00000000    9950.00000000    9950.00000000    9950.00000000    9950.00000000    9950.00000000    9950.00000000    9950.00000000    9950.00000000    9950.00000000    9950.00000000
      9950.00000000    9950.00000000    9950.00000000    9950.00000000    9950.00000000    9950.00000000    9950.00000000    9950.00000000    9950.00000000    9950.00000000    9950.00000000    9950.00000000    9950.00000000    9950.00000000    9950.00000000    9950.00000000    9950.00000000    9950.00000000    9950.00000000    9950.00000000
      9950.00000000    9950.00000000    9950.00000000    9950.00000000    9950.00000000    9950.00000000    9950.00000000    9950.00000000    9950.00000000    9950.00000000    9950.00000000    9950.00000000    9950.00000000    9950.00000000    9950.00000000    9950.00000000    9950.00000000    9950.00000000    9950.00000000    9950.00000000
      9950.00000000    9950.00000000    9950.00000000    9950.00000000    9950.00000000    9950.00000000    9950.00000000    9950.00000000    9950.00000000    9950.00000000    9950.00000000    9950.00000000    9950.00000000    9950.00000000    9950.00000000    9950.00000000    9950.00000000    9950.00000000    9950.00000000    9950.00000000
      9950.00000000    9950.00000000    9950.00000000    9950.00000000    9950.00000000    9950.00000000    9950.00000000    9950.00000000    9950.00000000    9950.00000000    9950.00000000    9950.00000000    9950.00000000    9950.00000000    9950.00000000    9950.00000000    9950.00000000    9950.00000000    9950.00000000    9950.00000000
      9950.00000000    9950.00000000    9950.00000000    9950.00000000    9950.00000000    9950.00000000    9950.00000000    9950.00000000    9950.00000000    9950.00000000    9950.00000000    9950.00000000    9950.00000000    9950.00000000    9950.00000000    9950.00000000    9950.00000000    9950.00000000    9950.00000000    9950.00000000
      9950.00000000    9950.00000000    9950.00000000    9950.00000000    9950.00000000    9950.00000000    9950.00000000    9950.00000000    9950.00000000    9950.00000000    9950.00000000    9950.00000000    9950.00000000    9950.00000000    9950.00000000    9950.00000000    9950.00000000    9950.00000000    9950.00000000    9950.00000000
      9950.00000000    9950.00000000    9950.00000000    9950.00000000    9950.00000000    9950.00000000    9950.00000000    9950.00000000    9950.00000000    9950.00000000    9950.00000000    9950.00000000    9950.00000000    9950.00000000    9950.00000000    9950.00000000    9950.00000000    9950.00000000    9950.00000000    9950.00000000
      9950.00000000    9950.00000000    9950.00000000
      9950.00000000    9950.00000000    9950.00000000    9950.00000000    9950.00000000    9950.00000000    9950.00000000    9950.00000000    9950.00000000    9950.00000000    9950.00000000    9950.00000000    9950.00000000    9950.00000000    9950.00000000    9950.00000000    9950.00000000    9950.00000000    9950.00000000    9950.00000000
      9950.00000000    9950.00000000    9950.00000000    9950.00000000    9950.00000000    9950.00000000    9950.00000000    9950.00000000    9950.00000000    9950.00000000    9950.00000000    9950.00000000    9950.00000000    9950.00000000    9950.00000000    9950.00000000    9950.00000000    9950.00000000    9950.00000000    9950.00000000
      9950.00000000    9950.00000000    9950.00000000    9950.00000000    9950.00000000    9950.00000000    9950.00000000    9950.00000000    9950.00000000    9950.00000000    9950.00000000    9950.00000000    9950.00000000    9950.00000000    9950.00000000    9950.00000000    9950.00000000    9950.00000000    9950.00000000    9950.00000000
      9950.00000000    9950.00000000    9950.00000000    9950.00000000    9950.00000000    9950.00000000    9950.00000000    9950.00000000    9950.00000000    9950.00000000    9950.00000000    9950.00000000    9950.00000000    9950.00000000    9950.00000000    9950.00000000    9950.00000000    9950.00000000    9950.00000000    9950.00000000
      9950.00000000    9950.00000000    9950.00000000    9950.00000000    9950.00000000    9950.00000000    9950.00000000    9950.00000000    9950.00000000    9950.00000000    9950.00000000    9950.00000000    9950.00000000    9950.00000000    9950.00000000    9950.00000000    9950.00000000    9950.00000000    9950.00000000    9950.00000000
      9950.00000000    9950.00000000    9950.00000000    9950.00000000    9950.00000000    9950.00000000    9950.00000000    9950.00000000    9950.00000000    9950.00000000    9950.00000000    9950.00000000    9950.00000000    9950.00000000    9950.00000000    9950.00000000    9950.00000000    9950.00000000    9950.00000000    9950.00000000
      9950.00000000    9950.00000000    9950.00000000    9950.00000000    9950.00000000    9950.00000000    9950.00000000    9950.00000000    9950.00000000    9950.00000000    9950.00000000    9950.00000000    9950.00000000    9950.00000000    9950.00000000    9950.00000000    9950.00000000    9950.00000000    9950.00000000    9950.00000000
      9950.00000000    -200.19999695    -208.69999695    -217.80000305    -227.39999390    -237.19999695    -247.00000000    -256.39999390    -265.10000610    -272.79998779    -279.00000000    -283.50000000    -286.10000610    -286.50000000    -284.70001221    -281.29998779    -278.39999390    -277.89999390    -279.20001221    -281.39999390
      -284.00000000    -286.89999390    -289.89999390    -293.00000000    -296.10000610    -299.29998779    -302.60000610    -305.79998779    -309.29998779    -312.20001221    -315.39999390    -318.50000000    -321.60000610    -324.70001221    -327.70001221    -330.70001221    -333.79998779    9950.00000000    9950.00000000    9950.00000000
      9950.00000000    9950.00000000    9950.00000000
      9950.00000000    9950.00000000    9950.00000000    9950.00000000    9950.00000000    9950.00000000    9950.00000000    9950.00000000    9950.00000000    9950.00000000    9950.00000000    9950.00000000    9950.00000000    9950.00000000    9950.00000000    9950.00000000    9950.00000000    9950.00000000    9950.00000000    9950.00000000
      9950.00000000    9950.00000000    9950.00000000    9950.00000000    9950.00000000    9950.00000000    9950.00000000    9950.00000000    9950.00000000    9950.00000000    9950.00000000    9950.00000000    9950.00000000    9950.00000000    9950.00000000    9950.00000000    9950.00000000    9950.00000000    9950.00000000    9950.00000000
      9950.00000000    9950.00000000    9950.00000000    9950.00000000    9950.00000000    9950.00000000    9950.00000000    9950.00000000    9950.00000000    9950.00000000    9950.00000000    9950.00000000    9950.00000000    9950.00000000    9950.00000000    9950.00000000    9950.00000000    9950.00000000    9950.00000000    9950.00000000
      9950.00000000    9950.00000000    9950.00000000    9950.00000000    9950.00000000    9950.00000000    9950.00000000    9950.00000000    9950.00000000    9950.00000000    9950.00000000    9950.00000000    9950.00000000    9950.00000000    9950.00000000    9950.00000000    9950.00000000    9950.00000000    9950.00000000    9950.00000000
      9950.00000000    9950.00000000    9950.00000000    9950.00000000    9950.00000000    9950.00000000    9950.00000000    9950.00000000    9950.00000000    9950.00000000    9950.00000000    9950.00000000    9950.00000000    9950.00000000    9950.00000000    9950.00000000    9950.00000000    9950.00000000    9950.00000000    9950.00000000
      9950.00000000    9950.00000000    9950.00000000    9950.00000000    9950.00000000    9950.00000000    9950.00000000    9950.00000000    9950.00000000    9950.00000000    9950.00000000    9950.00000000    9950.00000000    9950.00000000    9950.00000000    9950.00000000    9950.00000000    9950.00000000    9950.00000000    9950.00000000
      9950.00000000    9950.00000000    9950.00000000    9950.00000000    9950.00000000    9950.00000000    9950.00000000    9950.00000000    9950.00000000    9950.00000000    9950.00000000    9950.00000000    9950.00000000    9950.00000000    9950.00000000    9950.00000000    9950.00000000    9950.00000000    9950.00000000    -185.50000000
      -192.60000610    -200.50000000    -209.89999390    -218.60000610    -228.50000000    -238.50000000    -248.60000610    -258.79998779    -267.50000000    -276.10000610    -282.00000000    -286.79998779    -289.50000000    -289.79998779    -287.79998779    -284.50000000    -280.29998779    -280.00000000    -281.20001221    -283.20001221
      -285.50000000    -288.70001221    -291.79998779    -294.89999390    -298.20001221    -301.10000610    -304.70001221    -308.10000610    -311.39999390    -314.20001221    -317.50000000    -321.39999390    -324.29998779    -327.39999390    -329.89999390    -333.39999390    -336.39999390    9950.00000000    9950.00000000    9950.00000000
      9950.00000000    9950.00000000    9950.00000000
      9950.00000000    9950.00000000    9950.00000000    9950.00000000    9950.00000000    9950.00000000    9950.00000000    9950.00000000    9950.00000000    9950.00000000    9950.00000000    9950.00000000    9950.00000000    9950.00000000    9950.00000000    9950.00000000    9950.00000000    9950.00000000    9950.00000000    9950.00000000
      9950.00000000    9950.00000000    9950.00000000    9950.00000000    9950.00000000    9950.00000000    9950.00000000    9950.00000000    9950.00000000    9950.00000000    9950.00000000    9950.00000000    9950.00000000    9950.00000000    9950.00000000    9950.00000000    9950.00000000    9950.00000000    9950.00000000    9950.00000000
      9950.00000000    9950.00000000    9950.00000000    9950.00000000    9950.00000000    9950.00000000    9950.00000000    9950.00000000    9950.00000000    9950.00000000    9950.00000000    9950.00000000    9950.00000000    9950.00000000    9950.00000000    9950.00000000    9950.00000000    9950.00000000    9950.00000000    9950.00000000
      9950.00000000    9950.00000000    9950.00000000    9950.00000000    9950.00000000    9950.00000000    9950.00000000    9950.00000000    9950.00000000    9950.00000000    9950.00000000    9950.00000000    9950.00000000    9950.00000000    9950.00000000    9950.00000000    9950.00000000    9950.00000000    9950.00000000    9950.00000000
      9950.00000000    9950.00000000    9950.00000000    9950.00000000    9950.00000000    9950.00000000    9950.00000000    9950.00000000    9950.00000000    9950.00000000    9950.00000000    9950.00000000    9950.00000000    9950.00000000    9950.00000000    9950.00000000    9950.00000000    9950.00000000    9950.00000000    9950.00000000
      9950.00000000    9950.00000000    9950.00000000    9950.00000000    9950.00000000    9950.00000000    9950.00000000    9950.00000000    9950.00000000    9950.00000000    9950.00000000    9950.00000000    9950.00000000    9950.00000000    9950.00000000    9950.00000000    9950.00000000    9950.00000000    9950.00000000    9950.00000000
      9950.00000000    9950.00000000    9950.00000000    9950.00000000    9950.00000000    9950.00000000    9950.00000000    9950.00000000    9950.00000000    9950.00000000    9950.00000000    9950.00000000    9950.00000000    9950.00000000    9950.00000000    9950.00000000    9950.00000000    9950.00000000    9950.00000000    -185.60000610
      -192.80000305    -200.80000305    -209.69999695    -219.39999390    -229.50000000    -240.30000305    -251.00000000    -261.29998779    -270.89999390    -278.89999390    -286.50000000    -291.60000610    -294.60000610    -294.39999390    -292.20001221    -288.39999390    -283.50000000    -282.29998779    -283.10000610    -285.39999390
      -287.89999390    -290.79998779    -293.50000000    -296.89999390    -300.29998779    -303.70001221    -306.70001221    -310.10000610    -313.79998779    -316.79998779    -320.10000610    -323.79998779    -327.00000000    -329.60000610    -332.70001221    -336.20001221    -339.20001221    9950.00000000    9950.00000000    9950.00000000
      9950.00000000    9950.00000000    9950.00000000
      9950.00000000    9950.00000000    9950.00000000    9950.00000000    9950.00000000    9950.00000000    9950.00000000    9950.00000000    9950.00000000    9950.00000000    9950.00000000    9950.00000000    9950.00000000    9950.00000000    9950.00000000    9950.00000000    9950.00000000    9950.00000000    9950.00000000    9950.00000000
      9950.00000000    9950.00000000    9950.00000000    9950.00000000    9950.00000000    9950.00000000    9950.00000000    9950.00000000    9950.00000000    9950.00000000    9950.00000000    9950.00000000    9950.00000000    9950.00000000    9950.00000000    9950.00000000    9950.00000000    9950.00000000    9950.00000000    9950.00000000
      9950.00000000    9950.00000000    9950.00000000    9950.00000000    9950.00000000    9950.00000000    9950.00000000    9950.00000000    9950.00000000    9950.00000000    9950.00000000    9950.00000000    9950.00000000    9950.00000000    9950.00000000    9950.00000000    9950.00000000    9950.00000000    9950.00000000    9950.00000000
      9950.00000000    9950.00000000    9950.00000000    9950.00000000    9950.00000000    9950.00000000    9950.00000000    9950.00000000    9950.00000000    9950.00000000    9950.00000000    9950.00000000    9950.00000000    9950.00000000    9950.00000000    9950.00000000    9950.00000000    9950.00000000    9950.00000000    9950.00000000
      9950.00000000    9950.00000000    9950.00000000    9950.00000000    9950.00000000    9950.00000000    9950.00000000    9950.00000000    9950.00000000    9950.00000000    9950.00000000    9950.00000000    9950.00000000    9950.00000000    9950.00000000    9950.00000000    9950.00000000    9950.00000000    9950.00000000    9950.00000000
      9950.00000000    9950.00000000    9950.00000000    9950.00000000    9950.00000000    9950.00000000    9950.00000000    9950.00000000    9950.00000000    9950.00000000    9950.00000000    9950.00000000    9950.00000000    9950.00000000    9950.00000000    9950.00000000    9950.00000000    9950.00000000    9950.00000000    9950.00000000
      9950.00000000    9950.00000000    9950.00000000    9950.00000000    9950.00000000    9950.00000000    9950.00000000    9950.00000000    9950.00000000    9950.00000000    9950.00000000    9950.00000000    9950.00000000    9950.00000000    9950.00000000    9950.00000000    9950.00000000    9950.00000000    -179.50000000    -185.80000305
      -192.89999390    -201.00000000    -210.19999695    -220.10000610    -230.69999695    -242.00000000    -253.10000610    -263.50000000    -274.79998779    -283.00000000    -290.50000000    -296.00000000    -298.60000610    -300.29998779    -297.39999390    -293.39999390    -287.60000610    -286.50000000    -286.29998779    -287.89999390
      -290.70001221    -293.39999390    -296.39999390    -299.10000610    -302.79998779    -305.79998779    -309.20001221    -313.10000610    -316.50000000    -319.89999390    -323.29998779    -326.39999390    -329.29998779    -332.50000000    -335.60000610    -338.60000610    -342.10000610    9950.00000000    9950.00000000    9950.00000000
      9950.00000000    9950.00000000    9950.00000000
      9950.00000000    9950.00000000    9950.00000000    9950.00000000    9950.00000000    9950.00000000    9950.00000000    9950.00000000    9950.00000000    9950.00000000    9950.00000000    9950.00000000    9950.00000000    9950.00000000    9950.00000000    9950.00000000    9950.00000000    9950.00000000    9950.00000000    9950.00000000
      9950.00000000    9950.00000000    9950.00000000    9950.00000000    9950.00000000    9950.00000000    9950.00000000    9950.00000000    9950.00000000    9950.00000000    9950.00000000    9950.00000000    9950.00000000    9950.00000000    9950.00000000    9950.00000000    9950.00000000    9950.00000000    9950.00000000    9950.00000000
      9950.00000000    9950.00000000    9950.00000000    9950.00000000    9950.00000000    9950.00000000    9950.00000000    9950.00000000    9950.00000000    9950.00000000    9950.00000000    9950.00000000    9950.00000000    9950.00000000    9950.00000000    9950.00000000    9950.00000000    9950.00000000    9950.00000000    9950.00000000
      9950.00000000    9950.00000000    9950.00000000    9950.00000000    9950.00000000    9950.00000000    9950.00000000    9950.00000000    9950.00000000    9950.00000000    9950.00000000    9950.00000000    9950.00000000    9950.00000000    9950.00000000    9950.00000000    9950.00000000    9950.00000000    9950.00000000    9950.00000000
      9950.00000000    9950.00000000    9950.00000000    9950.00000000    9950.00000000    9950.00000000    9950.00000000    9950.00000000    9950.00000000    9950.00000000    9950.00000000    9950.00000000    9950.00000000    9950.00000000    9950.00000000    9950.00000000    9950.00000000    9950.00000000    9950.00000000    9950.00000000
      9950.00000000    9950.00000000    9950.00000000    9950.00000000    9950.00000000    9950.00000000    9950.00000000    9950.00000000    9950.00000000    9950.00000000    9950.00000000    9950.00000000    9950.00000000    9950.00000000    9950.00000000    9950.00000000    9950.00000000    9950.00000000    9950.00000000    9950.00000000
      9950.00000000    9950.00000000    9950.00000000    9950.00000000    9950.00000000    9950.00000000    9950.00000000    9950.00000000    9950.00000000    9950.00000000    9950.00000000    9950.00000000    9950.00000000    9950.00000000    9950.00000000    9950.00000000    9950.00000000    9950.00000000    -179.80000305    -185.89999390
      -193.10000610    -201.39999390    -210.69999695    -220.89999390    -232.10000610    -243.60000610    -255.29998779    -266.10000610    -277.50000000    -286.10000610    -295.10000610    -300.50000000    -303.50000000    -304.70001221    -303.89999390    -298.79998779    -293.00000000    -290.70001221    -290.50000000    -291.60000610
      -293.79998779    -295.70001221    -299.10000610    -302.50000000    -305.00000000    -308.89999390    -312.39999390    -315.89999390    -318.89999390    -322.79998779    -326.20001221    -329.29998779    -332.70001221    -335.89999390    -339.00000000    -342.10000610    -345.29998779    9950.00000000    9950.00000000    9950.00000000
      9950.00000000    9950.00000000    9950.00000000
      9950.00000000    9950.00000000    9950.00000000    9950.00000000    9950.00000000    9950.00000000    9950.00000000    9950.00000000    9950.00000000    9950.00000000    9950.00000000    9950.00000000    9950.00000000    9950.00000000    9950.00000000    9950.00000000    9950.00000000    9950.00000000    9950.00000000    9950.00000000
      9950.00000000    9950.00000000    9950.00000000    9950.00000000    9950.00000000    9950.00000000    9950.00000000    9950.00000000    9950.00000000    9950.00000000    9950.00000000    9950.00000000    9950.00000000    9950.00000000    9950.00000000    9950.00000000    9950.00000000    9950.00000000    9950.00000000    9950.00000000
      9950.00000000    9950.00000000    9950.00000000    9950.00000000    9950.00000000    9950.00000000    9950.00000000    9950.00000000    9950.00000000    9950.00000000    9950.00000000    9950.00000000    9950.00000000    9950.00000000    9950.00000000    9950.00000000    9950.00000000    9950.00000000    9950.00000000    9950.00000000
      9950.00000000    9950.00000000    9950.00000000    9950.00000000    9950.00000000    9950.00000000    9950.00000000    9950.00000000    9950.00000000    9950.00000000    9950.00000000    9950.00000000    9950.00000000    9950.00000000    9950.00000000    9950.00000000    9950.00000000    9950.00000000    9950.00000000    9950.00000000
      9950.00000000    9950.00000000    9950.00000000    9950.00000000    9950.00000000    9950.00000000    9950.00000000    9950.00000000    9950.00000000    9950.00000000    9950.00000000    9950.00000000    9950.00000000    9950.00000000    9950.00000000    9950.00000000    9950.00000000    9950.00000000    9950.00000000    9950.00000000
      9950.00000000    9950.00000000    9950.00000000    9950.00000000    9950.00000000    9950.00000000    9950.00000000    9950.00000000    9950.00000000    9950.00000000    9950.00000000    9950.00000000    9950.00000000    9950.00000000    9950.00000000    9950.00000000    9950.00000000    9950.00000000    9950.00000000    9950.00000000
      9950.00000000    9950.00000000    9950.00000000    9950.00000000    9950.00000000    9950.00000000    9950.00000000    9950.00000000    9950.00000000    9950.00000000    9950.00000000    9950.00000000    9950.00000000    9950.00000000    9950.00000000    9950.00000000    9950.00000000    9950.00000000    -179.60000610    -186.19999695
      -193.39999390    -201.69999695    -211.30000305    -221.89999390    -233.39999390    -245.39999390    -257.39999390    -270.20001221    -281.29998779    -290.29998779    -299.29998779    -305.10000610    -309.29998779    -311.10000610    -309.89999390    -305.29998779    -298.89999390    -295.70001221    -294.70001221    -295.29998779
      -297.00000000    -299.29998779    -302.10000610    -305.20001221    -308.50000000    -311.89999390    -315.39999390    -318.89999390    -322.39999390    -325.79998779    -329.20001221    -332.50000000    -335.79998779    -339.00000000    -342.10000610    -345.20001221    -348.10000610    9950.00000000    9950.00000000    9950.00000000
      9950.00000000    9950.00000000    9950.00000000
      9950.00000000    9950.00000000    9950.00000000    9950.00000000    9950.00000000    9950.00000000    9950.00000000    9950.00000000    9950.00000000    9950.00000000    9950.00000000    9950.00000000    9950.00000000    9950.00000000    9950.00000000    9950.00000000    9950.00000000    9950.00000000    9950.00000000    9950.00000000
      9950.00000000    9950.00000000    9950.00000000    9950.00000000    9950.00000000    9950.00000000    9950.00000000    9950.00000000    9950.00000000    9950.00000000    9950.00000000    9950.00000000    9950.00000000    9950.00000000    9950.00000000    9950.00000000    9950.00000000    9950.00000000    9950.00000000    9950.00000000
      9950.00000000    9950.00000000    9950.00000000    9950.00000000    9950.00000000    9950.00000000    9950.00000000    9950.00000000    9950.00000000    9950.00000000    9950.00000000    9950.00000000    9950.00000000    9950.00000000    9950.00000000    9950.00000000    9950.00000000    9950.00000000    9950.00000000    9950.00000000
      9950.00000000    9950.00000000    9950.00000000    9950.00000000    9950.00000000    9950.00000000    9950.00000000    9950.00000000    9950.00000000    9950.00000000    9950.00000000    9950.00000000    9950.00000000    9950.00000000    9950.00000000    9950.00000000    9950.00000000    9950.00000000    9950.00000000    9950.00000000
      9950.00000000    9950.00000000    9950.00000000    9950.00000000    9950.00000000    9950.00000000    9950.00000000    9950.00000000    9950.00000000    9950.00000000    9950.00000000    9950.00000000    9950.00000000    9950.00000000    9950.00000000    9950.00000000    9950.00000000    9950.00000000    9950.00000000    9950.00000000
      9950.00000000    9950.00000000    9950.00000000    9950.00000000    9950.00000000    9950.00000000    9950.00000000    9950.00000000    9950.00000000    9950.00000000    9950.00000000    9950.00000000    9950.00000000    9950.00000000    9950.00000000    9950.00000000    9950.00000000    9950.00000000    9950.00000000    9950.00000000
      9950.00000000    9950.00000000    9950.00000000    9950.00000000    9950.00000000    9950.00000000    9950.00000000    9950.00000000    9950.00000000    9950.00000000    9950.00000000    9950.00000000    9950.00000000    9950.00000000    9950.00000000    9950.00000000    9950.00000000    9950.00000000    -179.10000610    -186.50000000
      -193.69999695    -202.10000610    -212.69999695    -222.80000305    -234.69999695    -247.10000610    -259.29998779    -271.50000000    -283.00000000    -293.39999390    -302.10000610    -309.60000610    -314.20001221    -315.39999390    -315.20001221    -309.89999390    -304.20001221    -299.70001221    -298.29998779    -299.29998779
      -300.60000610    -302.79998779    -304.79998779    -307.79998779    -311.10000610    -314.50000000    -318.00000000    -322.00000000    -325.50000000    -328.39999390    -331.89999390    -335.70001221    -338.50000000    -342.20001221    -344.79998779    -347.79998779    -351.60000610    9950.00000000    9950.00000000    9950.00000000
      9950.00000000    9950.00000000    9950.00000000
      9950.00000000    9950.00000000    9950.00000000    9950.00000000    9950.00000000    9950.00000000    9950.00000000    9950.00000000    9950.00000000    9950.00000000    9950.00000000    9950.00000000    9950.00000000    9950.00000000    9950.00000000    9950.00000000    9950.00000000    9950.00000000    9950.00000000    9950.00000000
      9950.00000000    9950.00000000    9950.00000000    9950.00000000    9950.00000000    9950.00000000    9950.00000000    9950.00000000    9950.00000000    9950.00000000    9950.00000000    9950.00000000    9950.00000000    9950.00000000    9950.00000000    9950.00000000    9950.00000000    9950.00000000    9950.00000000    9950.00000000
      9950.00000000    9950.00000000    9950.00000000    9950.00000000    9950.00000000    9950.00000000    9950.00000000    9950.00000000    9950.00000000    9950.00000000    9950.00000000    9950.00000000    9950.00000000    9950.00000000    9950.00000000    9950.00000000    9950.00000000    9950.00000000    9950.00000000    9950.00000000
      9950.00000000    9950.00000000    9950.00000000    9950.00000000    9950.00000000    9950.00000000    9950.00000000    9950.00000000    9950.00000000    9950.00000000    9950.00000000    9950.00000000    9950.00000000    9950.00000000    9950.00000000    9950.00000000    9950.00000000    9950.00000000    9950.00000000    9950.00000000
      9950.00000000    9950.00000000    9950.00000000    9950.00000000    9950.00000000    9950.00000000    9950.00000000    9950.00000000    9950.00000000    9950.00000000    9950.00000000    9950.00000000    9950.00000000    9950.00000000    9950.00000000    9950.00000000    9950.00000000    9950.00000000    9950.00000000    9950.00000000
      9950.00000000    9950.00000000    9950.00000000    9950.00000000    9950.00000000    9950.00000000    9950.00000000    9950.00000000    9950.00000000    9950.00000000    9950.00000000    9950.00000000    9950.00000000    9950.00000000    9950.00000000    9950.00000000    9950.00000000    9950.00000000    9950.00000000    9950.00000000
      9950.00000000    9950.00000000    9950.00000000    9950.00000000    9950.00000000    9950.00000000    9950.00000000    9950.00000000    9950.00000000    9950.00000000    9950.00000000    9950.00000000    9950.00000000    9950.00000000    9950.00000000    9950.00000000    9950.00000000    -153.60000610    -178.69999695    -186.89999390
      -194.00000000    -202.50000000    -212.39999390    -223.69999695    -237.10000610    -250.00000000    -261.89999390    -274.20001221    -286.79998779    -297.10000610    -306.79998779    -314.00000000    -318.79998779    -321.29998779    -319.29998779    -314.29998779    -309.20001221    -304.60000610    -303.60000610    -303.39999390
      -304.50000000    -306.39999390    -308.29998779    -311.20001221    -314.39999390    -318.29998779    -321.50000000    -325.29998779    -328.29998779    -331.70001221    -335.10000610    -339.00000000    -342.29998779    -344.89999390    -348.50000000    -351.60000610    -354.50000000    9950.00000000    9950.00000000    9950.00000000
      9950.00000000    9950.00000000    9950.00000000
      9950.00000000    9950.00000000    9950.00000000    9950.00000000    9950.00000000    9950.00000000    9950.00000000    9950.00000000    9950.00000000    9950.00000000    9950.00000000    9950.00000000    9950.00000000    9950.00000000    9950.00000000    9950.00000000    9950.00000000    9950.00000000    9950.00000000    9950.00000000
      9950.00000000    9950.00000000    9950.00000000    9950.00000000    9950.00000000    9950.00000000    9950.00000000    9950.00000000    9950.00000000    9950.00000000    9950.00000000    9950.00000000    9950.00000000    9950.00000000    9950.00000000    9950.00000000    9950.00000000    9950.00000000    9950.00000000    9950.00000000
      9950.00000000    9950.00000000    9950.00000000    9950.00000000    9950.00000000    9950.00000000    9950.00000000    9950.00000000    9950.00000000    9950.00000000    9950.00000000    9950.00000000    9950.00000000    9950.00000000    9950.00000000    9950.00000000    9950.00000000    9950.00000000    9950.00000000    9950.00000000
      9950.00000000    9950.00000000    9950.00000000    9950.00000000    9950.00000000    9950.00000000    9950.00000000    9950.00000000    9950.00000000    9950.00000000    9950.00000000    9950.00000000    9950.00000000    9950.00000000    9950.00000000    9950.00000000    9950.00000000    9950.00000000    9950.00000000    9950.00000000