BEGIN options
  SAVE_FLOWS
END options

BEGIN dimensions
  MAXBOUND  86
END dimensions

BEGIN period  1
OPEN/CLOSE    'agly.txt'  FACTOR  1.0
END period  1

