BEGIN options
  SAVE_FLOWS
END options

BEGIN dimensions
  MAXBOUND  47
END dimensions

BEGIN period  1
OPEN/CLOSE    'Bol.txt'  FACTOR  1.0
END period  1

