BEGIN options
  SAVE_FLOWS
END options

BEGIN dimensions
  MAXBOUND  66
END dimensions

BEGIN period  1
OPEN/CLOSE    'Cant.txt'  FACTOR  1.0
END period  1

