BEGIN options
  SAVE_FLOWS
END options

BEGIN dimensions
  MAXBOUND  129
END dimensions

BEGIN period  1
OPEN/CLOSE    'Rea.txt'  FACTOR  1.0
END period  1

