BEGIN options
  SAVE_FLOWS
END options

BEGIN dimensions
  MAXBOUND  173
END dimensions

BEGIN period  1
OPEN/CLOSE    'Tet.txt'  FACTOR  1.0
END period  1

