BEGIN griddata
  strt
    INTERNAL  FACTOR  1.0
       -49.00000000     -49.00000000     -49.00000000     -49.00000000     -49.00000000     -49.00000000     -49.00000000     -49.00000000     -49.00000000     -49.00000000     -49.00000000     -49.00000000     -49.00000000     -49.00000000     -49.00000000     -49.00000000     -49.00000000     -49.00000000     -49.00000000     -49.00000000
       -49.00000000     -49.00000000     -49.00000000     -49.00000000     -49.00000000     -49.00000000     -49.00000000     -49.00000000     -49.00000000     -49.00000000     -49.00000000     -49.00000000     -49.00000000     -49.00000000     -49.00000000     -49.00000000     -49.00000000     -49.00000000     -49.00000000     -49.00000000
       -49.00000000     -49.00000000     -49.00000000     -49.00000000     -49.00000000     -49.00000000     -49.00000000     -49.00000000     -49.00000000     -49.00000000     -49.00000000     -49.00000000     -49.00000000     -49.00000000     -49.00000000     -49.00000000     -49.00000000     -49.00000000     -49.00000000     -49.00000000
       -49.00000000     -49.00000000     -49.00000000     -49.00000000     -49.00000000     -49.00000000     -49.00000000     -49.00000000     -49.00000000     -49.00000000     -49.00000000     -49.00000000     -49.00000000     -49.00000000     -49.00000000     -49.00000000     -49.00000000     -49.00000000     -49.00000000     -49.00000000
       -49.00000000     -49.00000000     -49.00000000     -49.00000000     -49.00000000     -49.00000000     -49.00000000     -49.00000000     -49.00000000     -49.00000000     -49.00000000     -49.00000000     -49.00000000     -49.00000000     -49.00000000     -49.00000000     -49.00000000     -49.00000000     -49.00000000     -49.00000000
       -49.00000000     -49.00000000     -49.00000000     -49.00000000     -49.00000000     -49.00000000     -49.00000000     -49.00000000     -49.00000000     -49.00000000     -49.00000000     -49.00000000     -49.00000000     -49.00000000     -49.00000000     -49.00000000     -49.00000000     -49.00000000     -49.00000000     -49.00000000
       -49.00000000     -49.00000000     -49.00000000     -49.00000000     -49.00000000     -49.00000000     -49.00000000     -49.00000000     -49.00000000     -49.00000000     -49.00000000     -49.00000000     -49.00000000     -42.22000122     -44.36999893     -46.50000000     -47.95999908     -49.50000000     -49.50000000     -48.68999863
       -48.75000000     -47.45999908     -48.56000137     -48.72000122     -49.00000000     -49.00000000     -49.00000000     -49.00000000     -49.00000000     -49.00000000     -49.00000000     -49.00000000     -49.00000000
       -49.00000000     -49.00000000     -49.00000000     -49.00000000     -49.00000000     -49.00000000     -49.00000000     -49.00000000     -49.00000000     -49.00000000     -49.00000000     -49.00000000     -49.00000000     -49.00000000     -49.00000000     -49.00000000     -49.00000000     -49.00000000     -49.00000000     -49.00000000
       -49.00000000     -49.00000000     -49.00000000     -49.00000000     -49.00000000     -49.00000000     -49.00000000     -49.00000000     -49.00000000     -49.00000000     -49.00000000     -49.00000000     -49.00000000     -49.00000000     -49.00000000     -49.00000000     -49.00000000     -49.00000000     -49.00000000     -49.00000000
       -49.00000000     -49.00000000     -49.00000000     -49.00000000     -49.00000000     -49.00000000     -49.00000000     -49.00000000     -49.00000000     -49.00000000     -49.00000000     -49.00000000     -49.00000000     -49.00000000     -49.00000000     -49.00000000     -49.00000000     -49.00000000     -49.00000000     -49.00000000
       -49.00000000     -49.00000000     -49.00000000     -49.00000000     -49.00000000     -49.00000000     -49.00000000     -49.00000000     -49.00000000     -49.00000000     -49.00000000     -49.00000000     -49.00000000     -49.00000000     -49.00000000     -49.00000000     -49.00000000     -49.00000000     -49.00000000     -49.00000000
       -49.00000000     -49.00000000     -49.00000000     -49.00000000     -49.00000000     -49.00000000     -49.00000000     -49.00000000     -49.00000000     -49.00000000     -49.00000000     -49.00000000     -49.00000000     -49.00000000     -49.00000000     -49.00000000     -49.00000000     -49.00000000     -49.00000000     -49.00000000
       -49.00000000     -49.00000000     -49.00000000     -49.00000000     -49.00000000     -49.00000000     -49.00000000     -49.00000000     -49.00000000     -49.00000000     -49.00000000     -49.00000000     -49.00000000     -49.00000000     -49.00000000     -49.00000000     -49.00000000     -49.00000000     -49.00000000     -49.00000000
       -49.00000000     -49.00000000     -49.00000000     -49.00000000     -49.00000000     -49.00000000     -49.00000000     -49.00000000     -49.00000000     -49.00000000     -49.00000000     -49.00000000     -49.00000000     -42.11999893     -44.83000183     -46.59999847     -46.93000031     -48.81999969     -49.50000000     -49.50000000
       -49.11000061     -48.22999954     -48.59000015     -48.77000046     -49.00000000     -49.00000000     -49.00000000     -49.00000000     -49.00000000     -49.00000000     -49.00000000     -49.00000000     -49.00000000
       -49.00000000     -49.00000000     -49.00000000     -49.00000000     -49.00000000     -49.00000000     -49.00000000     -49.00000000     -49.00000000     -49.00000000     -49.00000000     -49.00000000     -49.00000000     -49.00000000     -49.00000000     -49.00000000     -49.00000000     -49.00000000     -49.00000000     -49.00000000
       -49.00000000     -49.00000000     -49.00000000     -49.00000000     -49.00000000     -49.00000000     -49.00000000     -49.00000000     -49.00000000     -49.00000000     -49.00000000     -49.00000000     -49.00000000     -49.00000000     -49.00000000     -49.00000000     -49.00000000     -49.00000000     -49.00000000     -49.00000000
       -49.00000000     -49.00000000     -49.00000000     -49.00000000     -49.00000000     -49.00000000     -49.00000000     -49.00000000     -49.00000000     -49.00000000     -49.00000000     -49.00000000     -49.00000000     -49.00000000     -49.00000000     -49.00000000     -49.00000000     -49.00000000     -49.00000000     -49.00000000
       -49.00000000     -49.00000000     -49.00000000     -49.00000000     -49.00000000     -49.00000000     -49.00000000     -49.00000000     -49.00000000     -49.00000000     -49.00000000     -49.00000000     -49.00000000     -49.00000000     -49.00000000     -49.00000000     -49.00000000     -49.00000000     -49.00000000     -49.00000000
       -49.00000000     -49.00000000     -49.00000000     -49.00000000     -49.00000000     -49.00000000     -49.00000000     -49.00000000     -49.00000000     -49.00000000     -49.00000000     -49.00000000     -49.00000000     -49.00000000     -49.00000000     -49.00000000     -49.00000000     -49.00000000     -49.00000000     -49.00000000
       -49.00000000     -49.00000000     -49.00000000     -49.00000000     -49.00000000     -49.00000000     -49.00000000     -49.00000000     -49.00000000     -49.00000000     -49.00000000     -49.00000000     -49.00000000     -49.00000000     -49.00000000     -49.00000000     -49.00000000     -49.00000000     -49.00000000     -49.00000000
       -49.00000000     -49.00000000     -49.00000000     -49.00000000     -49.00000000     -49.00000000     -49.00000000     -49.00000000     -49.00000000     -49.00000000     -49.00000000     -49.00000000     -49.00000000     -42.20000076     -44.72000122     -46.95999908     -47.90999985     -48.08000183     -48.31000137     -48.38999939
       -46.72999954     -49.50000000     -49.50000000     -48.81999969     -49.00000000     -49.00000000     -49.00000000     -49.00000000     -49.00000000     -49.00000000     -49.00000000     -49.00000000     -49.00000000
       -49.00000000     -49.00000000     -49.00000000     -49.00000000     -49.00000000     -49.00000000     -49.00000000     -49.00000000     -49.00000000     -49.00000000     -49.00000000     -49.00000000     -49.00000000     -49.00000000     -49.00000000     -49.00000000     -49.00000000     -49.00000000     -49.00000000     -49.00000000
       -49.00000000     -49.00000000     -49.00000000     -49.00000000     -49.00000000     -49.00000000     -49.00000000     -49.00000000     -49.00000000     -49.00000000     -49.00000000     -49.00000000     -49.00000000     -49.00000000     -49.00000000     -49.00000000     -49.00000000     -49.00000000     -49.00000000     -49.00000000
       -49.00000000     -49.00000000     -49.00000000     -49.00000000     -49.00000000     -49.00000000     -49.00000000     -49.00000000     -49.00000000     -49.00000000     -49.00000000     -49.00000000     -49.00000000     -49.00000000     -49.00000000     -49.00000000     -49.00000000     -49.00000000     -49.00000000     -49.00000000
       -49.00000000     -49.00000000     -49.00000000     -49.00000000     -49.00000000     -49.00000000     -49.00000000     -49.00000000     -49.00000000     -49.00000000     -49.00000000     -49.00000000     -49.00000000     -49.00000000     -49.00000000     -49.00000000     -49.00000000     -49.00000000     -49.00000000     -49.00000000
       -49.00000000     -49.00000000     -49.00000000     -49.00000000     -49.00000000     -49.00000000     -49.00000000     -49.00000000     -49.00000000     -49.00000000     -49.00000000     -49.00000000     -49.00000000     -49.00000000     -49.00000000     -49.00000000     -49.00000000     -49.00000000     -49.00000000     -49.00000000
       -49.00000000     -49.00000000     -49.00000000     -49.00000000     -49.00000000     -49.00000000     -49.00000000     -49.00000000     -49.00000000     -49.00000000     -49.00000000     -49.00000000     -49.00000000     -49.00000000     -49.00000000     -49.00000000     -49.00000000     -49.00000000     -49.00000000     -49.00000000
       -49.00000000     -49.00000000     -49.00000000     -49.00000000     -49.00000000     -49.00000000     -49.00000000     -49.00000000     -49.00000000     -49.00000000     -49.00000000     -49.00000000     -49.00000000     -41.54000092     -44.72000122     -47.70000076     -48.27999878     -43.54000092     -44.65999985     -43.20000076
       -35.27000046     -45.59999847     -47.27999878     -49.06999969     -49.00000000     -49.00000000     -49.00000000     -49.00000000     -49.00000000     -49.00000000     -49.00000000     -49.00000000     -49.00000000
       -49.00000000     -49.00000000     -49.00000000     -49.00000000     -49.00000000     -49.00000000     -49.00000000     -49.00000000     -49.00000000     -49.00000000     -49.00000000     -49.00000000     -49.00000000     -49.00000000     -49.00000000     -49.00000000     -49.00000000     -49.00000000     -49.00000000     -49.00000000
       -49.00000000     -49.00000000     -49.00000000     -49.00000000     -49.00000000     -49.00000000     -49.00000000     -49.00000000     -49.00000000     -49.00000000     -49.00000000     -49.00000000     -49.00000000     -49.00000000     -49.00000000     -49.00000000     -49.00000000     -49.00000000     -49.00000000     -49.00000000
       -49.00000000     -49.00000000     -49.00000000     -49.00000000     -49.00000000     -49.00000000     -49.00000000     -49.00000000     -49.00000000     -49.00000000     -49.00000000     -49.00000000     -49.00000000     -49.00000000     -49.00000000     -49.00000000     -49.00000000     -49.00000000     -49.00000000     -49.00000000
       -49.00000000     -49.00000000     -49.00000000     -49.00000000     -49.00000000     -49.00000000     -49.00000000     -49.00000000     -49.00000000     -49.00000000     -49.00000000     -49.00000000     -49.00000000     -49.00000000     -49.00000000     -49.00000000     -49.00000000     -49.00000000     -49.00000000     -49.00000000
       -49.00000000     -49.00000000     -49.00000000     -49.00000000     -49.00000000     -49.00000000     -49.00000000     -49.00000000     -49.00000000     -49.00000000     -49.00000000     -49.00000000     -49.00000000     -49.00000000     -49.00000000     -49.00000000     -49.00000000     -49.00000000     -49.00000000     -49.00000000
       -49.00000000     -49.00000000     -49.00000000     -49.00000000     -49.00000000     -49.00000000     -49.00000000     -49.00000000     -49.00000000     -49.00000000     -49.00000000     -49.00000000     -49.00000000     -49.00000000     -49.00000000     -49.00000000     -49.00000000     -49.00000000     -49.00000000     -49.00000000
       -49.00000000     -49.00000000     -49.00000000     -49.00000000     -49.00000000     -49.00000000     -49.00000000     -49.00000000     -49.00000000     -49.00000000     -49.00000000     -49.00000000     -49.00000000     -42.93000031     -45.45000076     -48.11999893     -43.68000031     -34.93999863     -11.81999969      -8.63999939
        -6.68999863      -1.77999878       1.15000153     -46.00000000     -49.00000000     -49.00000000     -49.00000000     -49.00000000     -49.00000000     -49.00000000     -49.00000000     -49.00000000     -49.00000000
       -49.00000000     -49.00000000     -49.00000000     -49.00000000     -49.00000000     -49.00000000     -49.00000000     -49.00000000     -49.00000000     -49.00000000     -49.00000000     -49.00000000     -49.00000000     -49.00000000     -49.00000000     -49.00000000     -49.00000000     -49.00000000     -49.00000000     -49.00000000
       -49.00000000     -49.00000000     -49.00000000     -49.00000000     -49.00000000     -49.00000000     -49.00000000     -49.00000000     -49.00000000     -49.00000000     -49.00000000     -49.00000000     -49.00000000     -49.00000000     -49.00000000     -49.00000000     -49.00000000     -49.00000000     -49.00000000     -49.00000000
       -49.00000000     -49.00000000     -49.00000000     -49.00000000     -49.00000000     -49.00000000     -49.00000000     -49.00000000     -49.00000000     -49.00000000     -49.00000000     -49.00000000     -49.00000000     -49.00000000     -49.00000000     -49.00000000     -49.00000000     -49.00000000     -49.00000000     -49.00000000
       -49.00000000     -49.00000000     -49.00000000     -49.00000000     -49.00000000     -49.00000000     -49.00000000     -49.00000000     -49.00000000     -49.00000000     -49.00000000     -49.00000000     -49.00000000     -49.00000000     -49.00000000     -49.00000000     -49.00000000     -49.00000000     -49.00000000     -49.00000000
       -49.00000000     -49.00000000     -49.00000000     -49.00000000     -49.00000000     -49.00000000     -49.00000000     -49.00000000     -49.00000000     -49.00000000     -49.00000000     -49.00000000     -49.00000000     -49.00000000     -49.00000000     -49.00000000     -49.00000000     -49.00000000     -49.00000000     -49.00000000
       -49.00000000     -49.00000000     -49.00000000     -49.00000000     -49.00000000     -49.00000000     -49.00000000     -49.00000000     -49.00000000     -49.00000000     -49.00000000     -49.00000000     -49.00000000     -49.00000000     -49.00000000     -49.00000000     -49.00000000     -49.00000000     -49.00000000     -49.00000000
       -49.00000000     -49.00000000     -49.00000000     -49.00000000     -49.00000000     -49.00000000     -49.00000000     -49.00000000     -49.00000000     -49.00000000     -49.00000000     -49.00000000     -49.00000000     -45.75000000     -47.08000183     -48.88999939     -43.08000183     -11.04999924      -9.72999954     -11.50000000
        -8.68999863      -3.09999847      -1.22999954    -138.75480652    -135.37170410     -48.77000046     -49.00000000     -49.00000000     -49.00000000     -49.00000000     -49.00000000     -49.00000000     -49.00000000
       -49.00000000     -49.00000000     -49.00000000     -49.00000000     -49.00000000     -49.00000000     -49.00000000     -49.00000000     -49.00000000     -49.00000000     -49.00000000     -49.00000000     -49.00000000     -49.00000000     -49.00000000     -49.00000000     -49.00000000     -49.00000000     -49.00000000     -49.00000000
       -49.00000000     -49.00000000     -49.00000000     -49.00000000     -49.00000000     -49.00000000     -49.00000000     -49.00000000     -49.00000000     -49.00000000     -49.00000000     -49.00000000     -49.00000000     -49.00000000     -49.00000000     -49.00000000     -49.00000000     -49.00000000     -49.00000000     -49.00000000
       -49.00000000     -49.00000000     -49.00000000     -49.00000000     -49.00000000     -49.00000000     -49.00000000     -49.00000000     -49.00000000     -49.00000000     -49.00000000     -49.00000000     -49.00000000     -49.00000000     -49.00000000     -49.00000000     -49.00000000     -49.00000000     -49.00000000     -49.00000000
       -49.00000000     -49.00000000     -49.00000000     -49.00000000     -49.00000000     -49.00000000     -49.00000000     -49.00000000     -49.00000000     -49.00000000     -49.00000000     -49.00000000     -49.00000000     -49.00000000     -49.00000000     -49.00000000     -49.00000000     -49.00000000     -49.00000000     -49.00000000
       -49.00000000     -49.00000000     -49.00000000     -49.00000000     -49.00000000     -49.00000000     -49.00000000     -49.00000000     -49.00000000     -49.00000000     -49.00000000     -49.00000000     -49.00000000     -49.00000000     -49.00000000     -49.00000000     -49.00000000     -49.00000000     -49.00000000     -49.00000000
       -49.00000000     -49.00000000     -49.00000000     -49.00000000     -49.00000000     -49.00000000     -49.00000000     -49.00000000     -49.00000000     -49.00000000     -49.00000000     -49.00000000     -49.00000000     -49.00000000     -49.00000000     -49.00000000     -49.00000000     -49.00000000     -49.00000000     -49.00000000
       -49.00000000     -49.00000000     -49.00000000     -49.00000000     -49.00000000     -49.00000000     -49.00000000     -49.00000000     -49.00000000     -49.00000000     -49.00000000     -49.00000000     -49.00000000     -44.02000046     -47.63000107     -48.88999939     -48.93000031     -41.22000122     -10.59999847      -8.72999954
        -7.50000000      -9.59999847    -135.84570312    -132.54849243    -128.97300720    -124.23059845    -120.28040314    -115.02670288     -49.00000000     -49.00000000     -49.00000000     -98.14370728    -102.05629730
       -49.00000000     -49.00000000     -49.00000000     -49.00000000     -49.00000000     -49.00000000     -49.00000000     -49.00000000     -49.00000000     -49.00000000     -49.00000000     -49.00000000     -49.00000000     -49.00000000     -49.00000000     -49.00000000     -49.00000000     -49.00000000     -49.00000000     -49.00000000
       -49.00000000     -49.00000000     -49.00000000     -49.00000000     -49.00000000     -49.00000000     -49.00000000     -49.00000000     -49.00000000     -49.00000000     -49.00000000     -49.00000000     -49.00000000     -49.00000000     -49.00000000     -49.00000000     -49.00000000     -49.00000000     -49.00000000     -49.00000000
       -49.00000000     -49.00000000     -49.00000000     -49.00000000     -49.00000000     -49.00000000     -49.00000000     -49.00000000     -49.00000000     -49.00000000     -49.00000000     -49.00000000     -49.00000000     -49.00000000     -49.00000000     -49.00000000     -49.00000000     -49.00000000     -49.00000000     -49.00000000
       -49.00000000     -49.00000000     -49.00000000     -49.00000000     -49.00000000     -49.00000000     -49.00000000     -49.00000000     -49.00000000     -49.00000000     -49.00000000     -49.00000000     -49.00000000     -49.00000000     -49.00000000     -49.00000000     -49.00000000     -49.00000000     -49.00000000     -49.00000000
       -49.00000000     -49.00000000     -49.00000000     -49.00000000     -49.00000000     -49.00000000     -49.00000000     -49.00000000     -49.00000000     -49.00000000     -49.00000000     -49.00000000     -49.00000000     -49.00000000     -49.00000000     -49.00000000     -49.00000000     -49.00000000     -49.00000000     -49.00000000
       -49.00000000     -49.00000000     -49.00000000     -49.00000000     -49.00000000     -49.00000000     -49.00000000     -49.00000000     -49.00000000     -49.00000000     -49.00000000     -49.00000000     -49.00000000     -49.00000000     -49.00000000     -49.00000000     -49.00000000     -49.00000000     -49.00000000     -49.00000000
       -49.00000000     -49.00000000     -49.00000000     -49.00000000     -49.00000000     -49.00000000     -49.00000000     -49.00000000     -49.00000000     -49.00000000     -49.00000000     -49.00000000     -49.00000000     -42.63999939     -47.06000137     -48.93000031     -48.93000031     -37.43999863      -8.38999939      -1.29999924
        36.54000092    -132.95300293    -129.75349426    -126.41840363    -121.98229980    -116.91950226    -112.84349823    -107.40019989     -49.00000000     -97.16589355     -92.95001221     -90.45873260    -100.68579865
       -49.00000000     -49.00000000     -49.00000000     -49.00000000     -49.00000000     -49.00000000     -49.00000000     -49.00000000     -49.00000000     -49.00000000     -49.00000000     -49.00000000     -49.00000000     -49.00000000     -49.00000000     -49.00000000     -49.00000000     -49.00000000     -49.00000000     -49.00000000
       -49.00000000     -49.00000000     -49.00000000     -49.00000000     -49.00000000     -49.00000000     -49.00000000     -49.00000000     -49.00000000     -49.00000000     -49.00000000     -49.00000000     -49.00000000     -49.00000000     -49.00000000     -49.00000000     -49.00000000     -49.00000000     -49.00000000     -49.00000000
       -49.00000000     -49.00000000     -49.00000000     -49.00000000     -49.00000000     -49.00000000     -49.00000000     -49.00000000     -49.00000000     -49.00000000     -49.00000000     -49.00000000     -49.00000000     -49.00000000     -49.00000000     -49.00000000     -49.00000000     -49.00000000     -49.00000000     -49.00000000
       -49.00000000     -49.00000000     -49.00000000     -49.00000000     -49.00000000     -49.00000000     -49.00000000     -49.00000000     -49.00000000     -49.00000000     -49.00000000     -49.00000000     -49.00000000     -49.00000000     -49.00000000     -49.00000000     -49.00000000     -49.00000000     -49.00000000     -49.00000000
       -49.00000000     -49.00000000     -49.00000000     -49.00000000     -49.00000000     -49.00000000     -49.00000000     -49.00000000     -49.00000000     -49.00000000     -49.00000000     -49.00000000     -49.00000000     -49.00000000     -49.00000000     -49.00000000     -49.00000000     -49.00000000     -49.00000000     -49.00000000
       -49.00000000     -49.00000000     -49.00000000     -49.00000000     -49.00000000     -49.00000000     -49.00000000     -49.00000000     -49.00000000     -49.00000000     -49.00000000     -49.00000000     -49.00000000     -49.00000000     -49.00000000     -49.00000000     -49.00000000     -49.00000000     -49.00000000     -49.00000000
       -49.00000000     -49.00000000     -49.00000000     -49.00000000     -49.00000000     -49.00000000     -49.00000000     -49.00000000     -49.00000000     -49.00000000     -49.00000000     -49.00000000     -49.00000000     -44.15999985     -45.58000183     -48.93000031     -48.93000031     -48.93000031      -5.97999954    -133.51310730
      -130.07279968    -126.97429657    -123.88649750    -119.80650330    -114.99600220    -109.92549896    -105.71679688    -100.08719635     -94.26065063     -88.75559235     -84.43968964     -83.98385620     -99.62689972
       -49.00000000     -49.00000000     -49.00000000     -49.00000000     -49.00000000     -49.00000000     -49.00000000     -49.00000000     -49.00000000     -49.00000000     -49.00000000     -49.00000000     -49.00000000     -49.00000000     -49.00000000     -49.00000000     -49.00000000     -49.00000000     -49.00000000     -49.00000000
       -49.00000000     -49.00000000     -49.00000000     -49.00000000     -49.00000000     -49.00000000     -49.00000000     -49.00000000     -49.00000000     -49.00000000     -49.00000000     -49.00000000     -49.00000000     -49.00000000     -49.00000000     -49.00000000     -49.00000000     -49.00000000     -49.00000000     -49.00000000
       -49.00000000     -49.00000000     -49.00000000     -49.00000000     -49.00000000     -49.00000000     -49.00000000     -49.00000000     -49.00000000     -49.00000000     -49.00000000     -49.00000000     -49.00000000     -49.00000000     -49.00000000     -49.00000000     -49.00000000     -49.00000000     -49.00000000     -49.00000000
       -49.00000000     -49.00000000     -49.00000000     -49.00000000     -49.00000000     -49.00000000     -49.00000000     -49.00000000     -49.00000000     -49.00000000     -49.00000000     -49.00000000     -49.00000000     -49.00000000     -49.00000000     -49.00000000     -49.00000000     -49.00000000     -49.00000000     -49.00000000
       -49.00000000     -49.00000000     -49.00000000     -49.00000000     -49.00000000     -49.00000000     -49.00000000     -49.00000000     -49.00000000     -49.00000000     -49.00000000     -49.00000000     -49.00000000     -49.00000000     -49.00000000     -49.00000000     -49.00000000     -49.00000000     -49.00000000     -49.00000000
       -49.00000000     -49.00000000     -49.00000000     -49.00000000     -49.00000000     -49.00000000     -49.00000000     -49.00000000     -49.00000000     -49.00000000     -49.00000000     -49.00000000     -49.00000000     -49.00000000     -49.00000000     -49.00000000     -49.00000000     -49.00000000     -49.00000000     -49.00000000
       -49.00000000     -49.00000000     -49.00000000     -49.00000000     -49.00000000     -49.00000000     -49.00000000     -49.00000000     -49.00000000     -49.00000000     -49.00000000     -49.00000000     -49.00000000     -42.15999985     -46.61999893     -48.93000031     -48.93000031     -48.93000031     -22.54999924    -127.20150757
      -124.20490265    -121.36450195    -117.66860199    -113.17890167    -108.43979645    -103.39669800     -99.02130127     -93.21714783     -87.03790283     -80.61997986     -75.60063171     -82.58159637     -99.36969757
       -49.00000000     -49.00000000     -49.00000000     -49.00000000     -49.00000000     -49.00000000     -49.00000000     -49.00000000     -49.00000000     -49.00000000     -49.00000000     -49.00000000     -49.00000000     -49.00000000     -49.00000000     -49.00000000     -49.00000000     -49.00000000     -49.00000000     -49.00000000
       -49.00000000     -49.00000000     -49.00000000     -49.00000000     -49.00000000     -49.00000000     -49.00000000     -49.00000000     -49.00000000     -49.00000000     -49.00000000     -49.00000000     -49.00000000     -49.00000000     -49.00000000     -49.00000000     -49.00000000     -49.00000000     -49.00000000     -49.00000000
       -49.00000000     -49.00000000     -49.00000000     -49.00000000     -49.00000000     -49.00000000     -49.00000000     -49.00000000     -49.00000000     -49.00000000     -49.00000000     -49.00000000     -49.00000000     -49.00000000     -49.00000000     -49.00000000     -49.00000000     -49.00000000     -49.00000000     -49.00000000
       -49.00000000     -49.00000000     -49.00000000     -49.00000000     -49.00000000     -49.00000000     -49.00000000     -49.00000000     -49.00000000     -49.00000000     -49.00000000     -49.00000000     -49.00000000     -49.00000000     -49.00000000     -49.00000000     -49.00000000     -49.00000000     -49.00000000     -49.00000000
       -49.00000000     -49.00000000     -49.00000000     -49.00000000     -49.00000000     -49.00000000     -49.00000000     -49.00000000     -49.00000000     -49.00000000     -49.00000000     -49.00000000     -49.00000000     -49.00000000     -49.00000000     -49.00000000     -49.00000000     -49.00000000     -49.00000000     -49.00000000
       -49.00000000     -49.00000000     -49.00000000     -49.00000000     -49.00000000     -49.00000000     -49.00000000     -49.00000000     -49.00000000     -49.00000000     -49.00000000     -49.00000000     -49.00000000     -49.00000000     -49.00000000     -49.00000000     -49.00000000     -49.00000000     -49.00000000     -49.00000000
       -49.00000000     -49.00000000     -49.00000000     -49.00000000     -49.00000000     -49.00000000     -49.00000000     -49.00000000     -49.00000000     -49.00000000     -49.00000000     -49.00000000     -49.00000000     -45.63999939     -48.93000031     -48.93000031     -48.93000031     -48.93000031     -35.47000122    -121.44400024
      -118.85019684    -115.54540253    -111.43139648    -107.11049652    -102.54180145     -97.66407776     -93.25869751     -87.46452332     -81.04519653     -73.82846069     -66.37861633     -82.83132935    -100.45880127
       -49.00000000     -49.00000000     -49.00000000     -49.00000000     -49.00000000     -49.00000000     -49.00000000     -49.00000000     -49.00000000     -49.00000000     -49.00000000     -49.00000000     -49.00000000     -49.00000000     -49.00000000     -49.00000000     -49.00000000     -49.00000000     -49.00000000     -49.00000000
       -49.00000000     -49.00000000     -49.00000000     -49.00000000     -49.00000000     -49.00000000     -49.00000000     -49.00000000     -49.00000000     -49.00000000     -49.00000000     -49.00000000     -49.00000000     -49.00000000     -49.00000000     -49.00000000     -49.00000000     -49.00000000     -49.00000000     -49.00000000
       -49.00000000     -49.00000000     -49.00000000     -49.00000000     -49.00000000     -49.00000000     -49.00000000     -49.00000000     -49.00000000     -49.00000000     -49.00000000     -49.00000000     -49.00000000     -49.00000000     -49.00000000     -49.00000000     -49.00000000     -49.00000000     -49.00000000     -49.00000000