BEGIN options
  BUDGET  FILEOUT  2D_trans.cbc
  HEAD  FILEOUT  2D_trans.hds
END options

BEGIN period  1
  SAVE  HEAD  ALL
  SAVE  BUDGET  ALL
  PRINT  HEAD  LAST
  PRINT  BUDGET  ALL
END period  1

