BEGIN options
  BUDGET  FILEOUT  2D_trans.cbc
  HEAD  FILEOUT  2D_trans.hds
END options

BEGIN period  1
  SAVE  HEAD  LAST
  SAVE  BUDGET  LAST
  PRINT  BUDGET  LAST
END period  1

