BEGIN options
  READASARRAYS
END options

BEGIN period  1
  recharge
    INTERNAL  FACTOR  1.0
    3.66739049E-09  3.66739049E-09  3.66739049E-09  3.66739049E-09  3.66739049E-09  3.66739049E-09  3.66739049E-09  3.66739049E-09  3.66739049E-09  3.66739049E-09  3.66739049E-09  3.66739049E-09  3.66739049E-09  3.66739049E-09  3.66739049E-09  3.66739049E-09  3.66739049E-09  3.66739049E-09  3.66739049E-09  3.66739049E-09
    3.66739049E-09  3.66739049E-09  3.66739049E-09  3.66739049E-09  3.66739049E-09  3.66739049E-09  3.66739049E-09  3.66739049E-09  3.66739049E-09  3.66739049E-09  3.66739049E-09  3.66739049E-09  3.66739049E-09  3.66739049E-09  3.66739049E-09  3.66739049E-09  3.66739049E-09  3.66739049E-09  3.66739049E-09  3.66739049E-09
    3.66739049E-09  3.66739049E-09  3.66739049E-09  3.66739049E-09  3.66739049E-09  3.66739049E-09  3.66739049E-09  3.66739049E-09  3.66739049E-09  3.66739049E-09  3.66739049E-09  3.66739049E-09  3.66739049E-09  3.66739049E-09  3.66739049E-09  3.66739049E-09  3.66739049E-09  3.66739049E-09  3.66739049E-09  3.66739049E-09
    3.66739049E-09  3.66739049E-09  3.66739049E-09  3.66739049E-09  3.66739049E-09  3.66739049E-09  3.66739049E-09  3.66739049E-09  3.66739049E-09  3.66739049E-09  3.66739049E-09  3.66739049E-09  3.66739049E-09  3.66739049E-09  3.66739049E-09  3.66739049E-09  3.66739049E-09  3.66739049E-09  3.66739049E-09  3.66739049E-09
    3.66739049E-09  3.66739049E-09  3.66739049E-09  3.66739049E-09  3.66739049E-09  3.66739049E-09  3.66739049E-09  3.66739049E-09  3.66739049E-09  3.66739049E-09  3.66739049E-09  3.66739049E-09  3.66739049E-09  3.66739049E-09  3.66739049E-09  3.66739049E-09  3.66739049E-09  3.66739049E-09  3.66739049E-09  3.66739049E-09
    3.66739049E-09  3.66739049E-09  3.66739049E-09  3.66739049E-09  3.66739049E-09  3.66739049E-09  3.66739049E-09  3.66739049E-09  3.66739049E-09  3.66739049E-09  3.66739049E-09  3.66739049E-09  3.66739049E-09  3.66739049E-09  3.66739049E-09  3.66739049E-09  3.66739049E-09  3.66739049E-09  3.66739049E-09  3.66739049E-09
    3.66739049E-09  3.66739049E-09  3.66739049E-09  3.66739049E-09  3.66739049E-09  3.66739049E-09  3.66739049E-09  3.66739049E-09  3.66739049E-09  3.66739049E-09  3.66739049E-09  3.66739049E-09  3.66739049E-09  3.66739049E-09  3.66739049E-09  3.66739049E-09  3.66739049E-09  3.66739049E-09  3.66739049E-09  3.66739049E-09
    3.66739049E-09  3.66739049E-09  3.66739049E-09  3.66739049E-09  3.66739049E-09  3.66739049E-09  3.66739049E-09  3.66739049E-09  3.66739049E-09  3.66739049E-09  3.66739049E-09  3.66739049E-09  3.66739049E-09
    3.66739049E-09  3.66739049E-09  3.66739049E-09  3.66739049E-09  3.66739049E-09  3.66739049E-09  3.66739049E-09  3.66739049E-09  3.66739049E-09  3.66739049E-09  3.66739049E-09  3.66739049E-09  3.66739049E-09  3.66739049E-09  3.66739049E-09  3.66739049E-09  3.66739049E-09  3.66739049E-09  3.66739049E-09  3.66739049E-09
    3.66739049E-09  3.66739049E-09  3.66739049E-09  3.66739049E-09  3.66739049E-09  3.66739049E-09  3.66739049E-09  3.66739049E-09  3.66739049E-09  3.66739049E-09  3.66739049E-09  3.66739049E-09  3.66739049E-09  3.66739049E-09  3.66739049E-09  3.66739049E-09  3.66739049E-09  3.66739049E-09  3.66739049E-09  3.66739049E-09
    3.66739049E-09  3.66739049E-09  3.66739049E-09  3.66739049E-09  3.66739049E-09  3.66739049E-09  3.66739049E-09  3.66739049E-09  3.66739049E-09  3.66739049E-09  3.66739049E-09  3.66739049E-09  3.66739049E-09  3.66739049E-09  3.66739049E-09  3.66739049E-09  3.66739049E-09  3.66739049E-09  3.66739049E-09  3.66739049E-09
    3.66739049E-09  3.66739049E-09  3.66739049E-09  3.66739049E-09  3.66739049E-09  3.66739049E-09  3.66739049E-09  3.66739049E-09  3.66739049E-09  3.66739049E-09  3.66739049E-09  3.66739049E-09  3.66739049E-09  3.66739049E-09  3.66739049E-09  3.66739049E-09  3.66739049E-09  3.66739049E-09  3.66739049E-09  3.66739049E-09
    3.66739049E-09  3.66739049E-09  3.66739049E-09  3.66739049E-09  3.66739049E-09  3.66739049E-09  3.66739049E-09  3.66739049E-09  3.66739049E-09  3.66739049E-09  3.66739049E-09  3.66739049E-09  3.66739049E-09  3.66739049E-09  3.66739049E-09  3.66739049E-09  3.66739049E-09  3.66739049E-09  3.66739049E-09  3.66739049E-09
    3.66739049E-09  3.66739049E-09  3.66739049E-09  3.66739049E-09  3.66739049E-09  3.66739049E-09  3.66739049E-09  3.66739049E-09  3.66739049E-09  3.66739049E-09  3.66739049E-09  3.66739049E-09  3.66739049E-09  3.66739049E-09  3.66739049E-09  3.66739049E-09  3.66739049E-09  3.66739049E-09  3.66739049E-09  3.66739049E-09
    3.66739049E-09  3.66739049E-09  3.66739049E-09  3.66739049E-09  3.66739049E-09  3.66739049E-09  3.66739049E-09  3.66739049E-09  3.66739049E-09  3.66739049E-09  3.66739049E-09  3.66739049E-09  3.66739049E-09  3.66739049E-09  3.66739049E-09  3.66739049E-09  3.66739049E-09  3.66739049E-09  3.66739049E-09  3.66739049E-09
    3.66739049E-09  3.66739049E-09  3.66739049E-09  3.66739049E-09  3.66739049E-09  3.66739049E-09  3.66739049E-09  3.66739049E-09  3.66739049E-09  3.66739049E-09  3.66739049E-09  3.66739049E-09  3.66739049E-09
    3.66739049E-09  3.66739049E-09  3.66739049E-09  3.66739049E-09  3.66739049E-09  3.66739049E-09  3.66739049E-09  3.66739049E-09  3.66739049E-09  3.66739049E-09  3.66739049E-09  3.66739049E-09  3.66739049E-09  3.66739049E-09  3.66739049E-09  3.66739049E-09  3.66739049E-09  3.66739049E-09  3.66739049E-09  3.66739049E-09
    3.66739049E-09  3.66739049E-09  3.66739049E-09  3.66739049E-09  3.66739049E-09  3.66739049E-09  3.66739049E-09  3.66739049E-09  3.66739049E-09  3.66739049E-09  3.66739049E-09  3.66739049E-09  3.66739049E-09  3.66739049E-09  3.66739049E-09  3.66739049E-09  3.66739049E-09  3.66739049E-09  3.66739049E-09  3.66739049E-09
    3.66739049E-09  3.66739049E-09  3.66739049E-09  3.66739049E-09  3.66739049E-09  3.66739049E-09  3.66739049E-09  3.66739049E-09  3.66739049E-09  3.66739049E-09  3.66739049E-09  3.66739049E-09  3.66739049E-09  3.66739049E-09  3.66739049E-09  3.66739049E-09  3.66739049E-09  3.66739049E-09  3.66739049E-09  3.66739049E-09
    3.66739049E-09  3.66739049E-09  3.66739049E-09  3.66739049E-09  3.66739049E-09  3.66739049E-09  3.66739049E-09  3.66739049E-09  3.66739049E-09  3.66739049E-09  3.66739049E-09  3.66739049E-09  3.66739049E-09  3.66739049E-09  3.66739049E-09  3.66739049E-09  3.66739049E-09  3.66739049E-09  3.66739049E-09  3.66739049E-09
    3.66739049E-09  3.66739049E-09  3.66739049E-09  3.66739049E-09  3.66739049E-09  3.66739049E-09  3.66739049E-09  3.66739049E-09  3.66739049E-09  3.66739049E-09  3.66739049E-09  3.66739049E-09  3.66739049E-09  3.66739049E-09  3.66739049E-09  3.66739049E-09  3.66739049E-09  3.66739049E-09  3.66739049E-09  3.66739049E-09
    3.66739049E-09  3.66739049E-09  3.66739049E-09  3.66739049E-09  3.66739049E-09  3.66739049E-09  3.66739049E-09  3.66739049E-09  3.66739049E-09  3.66739049E-09  3.66739049E-09  3.66739049E-09  3.66739049E-09  3.66739049E-09  3.66739049E-09  3.66739049E-09  3.66739049E-09  3.66739049E-09  3.66739049E-09  3.66739049E-09
    3.66739049E-09  3.66739049E-09  3.66739049E-09  3.66739049E-09  3.66739049E-09  3.66739049E-09  3.66739049E-09  3.66739049E-09  3.66739049E-09  3.66739049E-09  3.66739049E-09  3.66739049E-09  3.66739049E-09  3.66739049E-09  3.66739049E-09  3.66739049E-09  3.66739049E-09  3.66739049E-09  3.66739049E-09  3.66739049E-09
    3.66739049E-09  3.66739049E-09  3.66739049E-09  3.66739049E-09  3.66739049E-09  3.66739049E-09  3.66739049E-09  3.66739049E-09  3.66739049E-09  3.66739049E-09  3.66739049E-09  3.66739049E-09  3.66739049E-09
    3.66739049E-09  3.66739049E-09  3.66739049E-09  3.66739049E-09  3.66739049E-09  3.66739049E-09  3.66739049E-09  3.66739049E-09  3.66739049E-09  3.66739049E-09  3.66739049E-09  3.66739049E-09  3.66739049E-09  3.66739049E-09  3.66739049E-09  3.66739049E-09  3.66739049E-09  3.66739049E-09  3.66739049E-09  3.66739049E-09
    3.66739049E-09  3.66739049E-09  3.66739049E-09  3.66739049E-09  3.66739049E-09  3.66739049E-09  3.66739049E-09  3.66739049E-09  3.66739049E-09  3.66739049E-09  3.66739049E-09  3.66739049E-09  3.66739049E-09  3.66739049E-09  3.66739049E-09  3.66739049E-09  3.66739049E-09  3.66739049E-09  3.66739049E-09  3.66739049E-09
    3.66739049E-09  3.66739049E-09  3.66739049E-09  3.66739049E-09  3.66739049E-09  3.66739049E-09  3.66739049E-09  3.66739049E-09  3.66739049E-09  3.66739049E-09  3.66739049E-09  3.66739049E-09  3.66739049E-09  3.66739049E-09  3.66739049E-09  3.66739049E-09  3.66739049E-09  3.66739049E-09  3.66739049E-09  3.66739049E-09
    3.66739049E-09  3.66739049E-09  3.66739049E-09  3.66739049E-09  3.66739049E-09  3.66739049E-09  3.66739049E-09  3.66739049E-09  3.66739049E-09  3.66739049E-09  3.66739049E-09  3.66739049E-09  3.66739049E-09  3.66739049E-09  3.66739049E-09  3.66739049E-09  3.66739049E-09  3.66739049E-09  3.66739049E-09  3.66739049E-09
    3.66739049E-09  3.66739049E-09  3.66739049E-09  3.66739049E-09  3.66739049E-09  3.66739049E-09  3.66739049E-09  3.66739049E-09  3.66739049E-09  3.66739049E-09  3.66739049E-09  3.66739049E-09  3.66739049E-09  3.66739049E-09  3.66739049E-09  3.66739049E-09  3.66739049E-09  3.66739049E-09  3.66739049E-09  3.66739049E-09
    3.66739049E-09  3.66739049E-09  3.66739049E-09  3.66739049E-09  3.66739049E-09  3.66739049E-09  3.66739049E-09  3.66739049E-09  3.66739049E-09  3.66739049E-09  3.66739049E-09  3.66739049E-09  3.66739049E-09  3.66739049E-09  3.66739049E-09  3.66739049E-09  3.66739049E-09  3.66739049E-09  3.66739049E-09  3.66739049E-09
    3.66739049E-09  3.66739049E-09  3.66739049E-09  3.66739049E-09  3.66739049E-09  3.66739049E-09  3.66739049E-09  3.66739049E-09  3.66739049E-09  3.66739049E-09  3.66739049E-09  3.66739049E-09  3.66739049E-09  3.66739049E-09  3.66739049E-09  3.66739049E-09  3.66739049E-09  3.66739049E-09  3.66739049E-09  3.66739049E-09
    3.66739049E-09  3.66739049E-09  3.66739049E-09  3.66739049E-09  3.66739049E-09  3.66739049E-09  3.66739049E-09  3.66739049E-09  3.66739049E-09  3.66739049E-09  3.66739049E-09  3.66739049E-09  3.66739049E-09
    3.66739049E-09  3.66739049E-09  3.66739049E-09  3.66739049E-09  3.66739049E-09  3.66739049E-09  3.66739049E-09  3.66739049E-09  3.66739049E-09  3.66739049E-09  3.66739049E-09  3.66739049E-09  3.66739049E-09  3.66739049E-09  3.66739049E-09  3.66739049E-09  3.66739049E-09  3.66739049E-09  3.66739049E-09  3.66739049E-09
    3.66739049E-09  3.66739049E-09  3.66739049E-09  3.66739049E-09  3.66739049E-09  3.66739049E-09  3.66739049E-09  3.66739049E-09  3.66739049E-09  3.66739049E-09  3.66739049E-09  3.66739049E-09  3.66739049E-09  3.66739049E-09  3.66739049E-09  3.66739049E-09  3.66739049E-09  3.66739049E-09  3.66739049E-09  3.66739049E-09
    3.66739049E-09  3.66739049E-09  3.66739049E-09  3.66739049E-09  3.66739049E-09  3.66739049E-09  3.66739049E-09  3.66739049E-09  3.66739049E-09  3.66739049E-09  3.66739049E-09  3.66739049E-09  3.66739049E-09  3.66739049E-09  3.66739049E-09  3.66739049E-09  3.66739049E-09  3.66739049E-09  3.66739049E-09  3.66739049E-09
    3.66739049E-09  3.66739049E-09  3.66739049E-09  3.66739049E-09  3.66739049E-09  3.66739049E-09  3.66739049E-09  3.66739049E-09  3.66739049E-09  3.66739049E-09  3.66739049E-09  3.66739049E-09  3.66739049E-09  3.66739049E-09  3.66739049E-09  3.66739049E-09  3.66739049E-09  3.66739049E-09  3.66739049E-09  3.66739049E-09
    3.66739049E-09  3.66739049E-09  3.66739049E-09  3.66739049E-09  3.66739049E-09  3.66739049E-09  3.66739049E-09  3.66739049E-09  3.66739049E-09  3.66739049E-09  3.66739049E-09  3.66739049E-09  3.66739049E-09  3.66739049E-09  3.66739049E-09  3.66739049E-09  3.66739049E-09  3.66739049E-09  3.66739049E-09  3.66739049E-09
    3.66739049E-09  3.66739049E-09  3.66739049E-09  3.66739049E-09  3.66739049E-09  3.66739049E-09  3.66739049E-09  3.66739049E-09  3.66739049E-09  3.66739049E-09  3.66739049E-09  3.66739049E-09  3.66739049E-09  3.66739049E-09  3.66739049E-09  3.66739049E-09  3.66739049E-09  3.66739049E-09  3.66739049E-09  3.66739049E-09
    3.66739049E-09  3.66739049E-09  3.66739049E-09  3.66739049E-09  3.66739049E-09  3.66739049E-09  3.66739049E-09  3.66739049E-09  3.66739049E-09  3.66739049E-09  3.66739049E-09  3.66739049E-09  3.66739049E-09  3.66739049E-09  3.66739049E-09  3.66739049E-09  3.66739049E-09  3.66739049E-09  3.66739049E-09  3.66739049E-09
    3.66739049E-09  3.66739049E-09  3.66739049E-09  3.66739049E-09  3.66739049E-09  3.66739049E-09  3.66739049E-09  3.66739049E-09  3.66739049E-09  3.66739049E-09  3.66739049E-09  3.66739049E-09  3.66739049E-09
    3.66739049E-09  3.66739049E-09  3.66739049E-09  3.66739049E-09  3.66739049E-09  3.66739049E-09  3.66739049E-09  3.66739049E-09  3.66739049E-09  3.66739049E-09  3.66739049E-09  3.66739049E-09  3.66739049E-09  3.66739049E-09  3.66739049E-09  3.66739049E-09  3.66739049E-09  3.66739049E-09  3.66739049E-09  3.66739049E-09
    3.66739049E-09  3.66739049E-09  3.66739049E-09  3.66739049E-09  3.66739049E-09  3.66739049E-09  3.66739049E-09  3.66739049E-09  3.66739049E-09  3.66739049E-09  3.66739049E-09  3.66739049E-09  3.66739049E-09  3.66739049E-09  3.66739049E-09  3.66739049E-09  3.66739049E-09  3.66739049E-09  3.66739049E-09  3.66739049E-09
    3.66739049E-09  3.66739049E-09  3.66739049E-09  3.66739049E-09  3.66739049E-09  3.66739049E-09  3.66739049E-09  3.66739049E-09  3.66739049E-09  3.66739049E-09  3.66739049E-09  3.66739049E-09  3.66739049E-09  3.66739049E-09  3.66739049E-09  3.66739049E-09  3.66739049E-09  3.66739049E-09  3.66739049E-09  3.66739049E-09
    3.66739049E-09  3.66739049E-09  3.66739049E-09  3.66739049E-09  3.66739049E-09  3.66739049E-09  3.66739049E-09  3.66739049E-09  3.66739049E-09  3.66739049E-09  3.66739049E-09  3.66739049E-09  3.66739049E-09  3.66739049E-09  3.66739049E-09  3.66739049E-09  3.66739049E-09  3.66739049E-09  3.66739049E-09  3.66739049E-09
    3.66739049E-09  3.66739049E-09  3.66739049E-09  3.66739049E-09  3.66739049E-09  3.66739049E-09  3.66739049E-09  3.66739049E-09  3.66739049E-09  3.66739049E-09  3.66739049E-09  3.66739049E-09  3.66739049E-09  3.66739049E-09  3.66739049E-09  3.66739049E-09  3.66739049E-09  3.66739049E-09  3.66739049E-09  3.66739049E-09
    3.66739049E-09  3.66739049E-09  3.66739049E-09  3.66739049E-09  3.66739049E-09  3.66739049E-09  3.66739049E-09  3.66739049E-09  3.66739049E-09  3.66739049E-09  3.66739049E-09  3.66739049E-09  3.66739049E-09  3.66739049E-09  3.66739049E-09  3.66739049E-09  3.66739049E-09  3.66739049E-09  3.66739049E-09  3.66739049E-09
    3.66739049E-09  3.66739049E-09  3.66739049E-09  3.66739049E-09  3.66739049E-09  3.66739049E-09  3.66739049E-09  3.66739049E-09  3.66739049E-09  3.66739049E-09  3.66739049E-09  3.66739049E-09  3.66739049E-09  3.66739049E-09  3.66739049E-09  3.66739049E-09  3.66739049E-09  3.66739049E-09  3.66739049E-09  3.66739049E-09
    3.66739049E-09  3.66739049E-09  3.66739049E-09  3.66739049E-09  3.66739049E-09  3.66739049E-09  3.66739049E-09  3.66739049E-09  3.66739049E-09  3.66739049E-09  3.66739049E-09  3.66739049E-09  3.66739049E-09
    3.66739049E-09  3.66739049E-09  3.66739049E-09  3.66739049E-09  3.66739049E-09  3.66739049E-09  3.66739049E-09  3.66739049E-09  3.66739049E-09  3.66739049E-09  3.66739049E-09  3.66739049E-09  3.66739049E-09  3.66739049E-09  3.66739049E-09  3.66739049E-09  3.66739049E-09  3.66739049E-09  3.66739049E-09  3.66739049E-09
    3.66739049E-09  3.66739049E-09  3.66739049E-09  3.66739049E-09  3.66739049E-09  3.66739049E-09  3.66739049E-09  3.66739049E-09  3.66739049E-09  3.66739049E-09  3.66739049E-09  3.66739049E-09  3.66739049E-09  3.66739049E-09  3.66739049E-09  3.66739049E-09  3.66739049E-09  3.66739049E-09  3.66739049E-09  3.66739049E-09
    3.66739049E-09  3.66739049E-09  3.66739049E-09  3.66739049E-09  3.66739049E-09  3.66739049E-09  3.66739049E-09  3.66739049E-09  3.66739049E-09  3.66739049E-09  3.66739049E-09  3.66739049E-09  3.66739049E-09  3.66739049E-09  3.66739049E-09  3.66739049E-09  3.66739049E-09  3.66739049E-09  3.66739049E-09  3.66739049E-09
    3.66739049E-09  3.66739049E-09  3.66739049E-09  3.66739049E-09  3.66739049E-09  3.66739049E-09  3.66739049E-09  3.66739049E-09  3.66739049E-09  3.66739049E-09  3.66739049E-09  3.66739049E-09  3.66739049E-09  3.66739049E-09  3.66739049E-09  3.66739049E-09  3.66739049E-09  3.66739049E-09  3.66739049E-09  3.66739049E-09
    3.66739049E-09  3.66739049E-09  3.66739049E-09  3.66739049E-09  3.66739049E-09  3.66739049E-09  3.66739049E-09  3.66739049E-09  3.66739049E-09  3.66739049E-09  3.66739049E-09  3.66739049E-09  3.66739049E-09  3.66739049E-09  3.66739049E-09  3.66739049E-09  3.66739049E-09  3.66739049E-09  3.66739049E-09  3.66739049E-09
    3.66739049E-09  3.66739049E-09  3.66739049E-09  3.66739049E-09  3.66739049E-09  3.66739049E-09  3.66739049E-09  3.66739049E-09  3.66739049E-09  3.66739049E-09  3.66739049E-09  3.66739049E-09  3.66739049E-09  3.66739049E-09  3.66739049E-09  3.66739049E-09  3.66739049E-09  3.66739049E-09  3.66739049E-09  3.66739049E-09
    3.66739049E-09  3.66739049E-09  3.66739049E-09  3.66739049E-09  3.66739049E-09  3.66739049E-09  3.66739049E-09  3.66739049E-09  3.66739049E-09  3.66739049E-09  3.66739049E-09  3.66739049E-09  3.66739049E-09  3.66739049E-09  3.66739049E-09  3.66739049E-09  3.66739049E-09  3.66739049E-09  3.66739049E-09  3.66739049E-09
    3.66739049E-09  3.66739049E-09  3.66739049E-09  3.66739049E-09  3.66739049E-09  3.66739049E-09  3.66739049E-09  3.66739049E-09  3.66739049E-09  3.66739049E-09  3.66739049E-09  3.66739049E-09  3.66739049E-09
    3.66739049E-09  3.66739049E-09  3.66739049E-09  3.66739049E-09  3.66739049E-09  3.66739049E-09  3.66739049E-09  3.66739049E-09  3.66739049E-09  3.66739049E-09  3.66739049E-09  3.66739049E-09  3.66739049E-09  3.66739049E-09  3.66739049E-09  3.66739049E-09  3.66739049E-09  3.66739049E-09  3.66739049E-09  3.66739049E-09
    3.66739049E-09  3.66739049E-09  3.66739049E-09  3.66739049E-09  3.66739049E-09  3.66739049E-09  3.66739049E-09  3.66739049E-09  3.66739049E-09  3.66739049E-09  3.66739049E-09  3.66739049E-09  3.66739049E-09  3.66739049E-09  3.66739049E-09  3.66739049E-09  3.66739049E-09  3.66739049E-09  3.66739049E-09  3.66739049E-09
    3.66739049E-09  3.66739049E-09  3.66739049E-09  3.66739049E-09  3.66739049E-09  3.66739049E-09  3.66739049E-09  3.66739049E-09  3.66739049E-09  3.66739049E-09  3.66739049E-09  3.66739049E-09  3.66739049E-09  3.66739049E-09  3.66739049E-09  3.66739049E-09  3.66739049E-09  3.66739049E-09  3.66739049E-09  3.66739049E-09
    3.66739049E-09  3.66739049E-09  3.66739049E-09  3.66739049E-09  3.66739049E-09  3.66739049E-09  3.66739049E-09  3.66739049E-09  3.66739049E-09  3.66739049E-09  3.66739049E-09  3.66739049E-09  3.66739049E-09  3.66739049E-09  3.66739049E-09  3.66739049E-09  3.66739049E-09  3.66739049E-09  3.66739049E-09  3.66739049E-09
    3.66739049E-09  3.66739049E-09  3.66739049E-09  3.66739049E-09  3.66739049E-09  3.66739049E-09  3.66739049E-09  3.66739049E-09  3.66739049E-09  3.66739049E-09  3.66739049E-09  3.66739049E-09  3.66739049E-09  3.66739049E-09  3.66739049E-09  3.66739049E-09  3.66739049E-09  3.66739049E-09  3.66739049E-09  3.66739049E-09
    3.66739049E-09  3.66739049E-09  3.66739049E-09  3.66739049E-09  3.66739049E-09  3.66739049E-09  3.66739049E-09  3.66739049E-09  3.66739049E-09  3.66739049E-09  3.66739049E-09  3.66739049E-09  3.66739049E-09  3.66739049E-09  3.66739049E-09  3.66739049E-09  3.66739049E-09  3.66739049E-09  3.66739049E-09  3.66739049E-09
    3.66739049E-09  3.66739049E-09  3.66739049E-09  3.66739049E-09  3.66739049E-09  3.66739049E-09  3.66739049E-09  3.66739049E-09  3.66739049E-09  3.66739049E-09  3.66739049E-09  3.66739049E-09  3.66739049E-09  3.66739049E-09  3.66739049E-09  3.66739049E-09  3.66739049E-09  3.66739049E-09  3.66739049E-09  3.66739049E-09
    3.66739049E-09  3.66739049E-09  3.66739049E-09  3.66739049E-09  3.66739049E-09  3.66739049E-09  3.66739049E-09  3.66739049E-09  3.66739049E-09  3.66739049E-09  3.66739049E-09  3.66739049E-09  3.66739049E-09
    3.66739049E-09  3.66739049E-09  3.66739049E-09  3.66739049E-09  3.66739049E-09  3.66739049E-09  3.66739049E-09  3.66739049E-09  3.66739049E-09  3.66739049E-09  3.66739049E-09  3.66739049E-09  3.66739049E-09  3.66739049E-09  3.66739049E-09  3.66739049E-09  3.66739049E-09  3.66739049E-09  3.66739049E-09  3.66739049E-09
    3.66739049E-09  3.66739049E-09  3.66739049E-09  3.66739049E-09  3.66739049E-09  3.66739049E-09  3.66739049E-09  3.66739049E-09  3.66739049E-09  3.66739049E-09  3.66739049E-09  3.66739049E-09  3.66739049E-09  3.66739049E-09  3.66739049E-09  3.66739049E-09  3.66739049E-09  3.66739049E-09  3.66739049E-09  3.66739049E-09
    3.66739049E-09  3.66739049E-09  3.66739049E-09  3.66739049E-09  3.66739049E-09  3.66739049E-09  3.66739049E-09  3.66739049E-09  3.66739049E-09  3.66739049E-09  3.66739049E-09  3.66739049E-09  3.66739049E-09  3.66739049E-09  3.66739049E-09  3.66739049E-09  3.66739049E-09  3.66739049E-09  3.66739049E-09  3.66739049E-09
    3.66739049E-09  3.66739049E-09  3.66739049E-09  3.66739049E-09  3.66739049E-09  3.66739049E-09  3.66739049E-09  3.66739049E-09  3.66739049E-09  3.66739049E-09  3.66739049E-09  3.66739049E-09  3.66739049E-09  3.66739049E-09  3.66739049E-09  3.66739049E-09  3.66739049E-09  3.66739049E-09  3.66739049E-09  3.66739049E-09
    3.66739049E-09  3.66739049E-09  3.66739049E-09  3.66739049E-09  3.66739049E-09  3.66739049E-09  3.66739049E-09  3.66739049E-09  3.66739049E-09  3.66739049E-09  3.66739049E-09  3.66739049E-09  3.66739049E-09  3.66739049E-09  3.66739049E-09  3.66739049E-09  3.66739049E-09  3.66739049E-09  3.66739049E-09  3.66739049E-09
    3.66739049E-09  3.66739049E-09  3.66739049E-09  3.66739049E-09  3.66739049E-09  3.66739049E-09  3.66739049E-09  3.66739049E-09  3.66739049E-09  3.66739049E-09  3.66739049E-09  3.66739049E-09  3.66739049E-09  3.66739049E-09  3.66739049E-09  3.66739049E-09  3.66739049E-09  3.66739049E-09  3.66739049E-09  3.66739049E-09
    3.66739049E-09  3.66739049E-09  3.66739049E-09  3.66739049E-09  3.66739049E-09  3.66739049E-09  3.66739049E-09  3.66739049E-09  3.66739049E-09  3.66739049E-09  3.66739049E-09  3.66739049E-09  3.66739049E-09  3.66739049E-09  3.66739049E-09  3.66739049E-09  3.66739049E-09  3.66739049E-09  3.66739049E-09  3.66739049E-09
    3.66739049E-09  3.66739049E-09  3.66739049E-09  3.66739049E-09  3.66739049E-09  3.66739049E-09  3.66739049E-09  3.66739049E-09  3.66739049E-09  3.66739049E-09  3.66739049E-09  3.66739049E-09  3.66739049E-09
    3.66739049E-09  3.66739049E-09  3.66739049E-09  3.66739049E-09  3.66739049E-09  3.66739049E-09  3.66739049E-09  3.66739049E-09  3.66739049E-09  3.66739049E-09  3.66739049E-09  3.66739049E-09  3.66739049E-09  3.66739049E-09  3.66739049E-09  3.66739049E-09  3.66739049E-09  3.66739049E-09  3.66739049E-09  3.66739049E-09
    3.66739049E-09  3.66739049E-09  3.66739049E-09  3.66739049E-09  3.66739049E-09  3.66739049E-09  3.66739049E-09  3.66739049E-09  3.66739049E-09  3.66739049E-09  3.66739049E-09  3.66739049E-09  3.66739049E-09  3.66739049E-09  3.66739049E-09  3.66739049E-09  3.66739049E-09  3.66739049E-09  3.66739049E-09  3.66739049E-09
    3.66739049E-09  3.66739049E-09  3.66739049E-09  3.66739049E-09  3.66739049E-09  3.66739049E-09  3.66739049E-09  3.66739049E-09  3.66739049E-09  3.66739049E-09  3.66739049E-09  3.66739049E-09  3.66739049E-09  3.66739049E-09  3.66739049E-09  3.66739049E-09  3.66739049E-09  3.66739049E-09  3.66739049E-09  3.66739049E-09
    3.66739049E-09  3.66739049E-09  3.66739049E-09  3.66739049E-09  3.66739049E-09  3.66739049E-09  3.66739049E-09  3.66739049E-09  3.66739049E-09  3.66739049E-09  3.66739049E-09  3.66739049E-09  3.66739049E-09  3.66739049E-09  3.66739049E-09  3.66739049E-09  3.66739049E-09  3.66739049E-09  3.66739049E-09  3.66739049E-09
    3.66739049E-09  3.66739049E-09  3.66739049E-09  3.66739049E-09  3.66739049E-09  3.66739049E-09  3.66739049E-09  3.66739049E-09  3.66739049E-09  3.66739049E-09  3.66739049E-09  3.66739049E-09  3.66739049E-09  3.66739049E-09  3.66739049E-09  3.66739049E-09  3.66739049E-09  3.66739049E-09  3.66739049E-09  3.66739049E-09
    3.66739049E-09  3.66739049E-09  3.66739049E-09  3.66739049E-09  3.66739049E-09  3.66739049E-09  3.66739049E-09  3.66739049E-09  3.66739049E-09  3.66739049E-09  3.66739049E-09  3.66739049E-09  3.66739049E-09  3.66739049E-09  3.66739049E-09  3.66739049E-09  3.66739049E-09  3.66739049E-09  3.66739049E-09  3.66739049E-09
    3.66739049E-09  3.66739049E-09  3.66739049E-09  3.66739049E-09  3.66739049E-09  3.66739049E-09  3.66739049E-09  3.66739049E-09  3.66739049E-09  3.66739049E-09  3.66739049E-09  3.66739049E-09  3.66739049E-09  3.66739049E-09  3.66739049E-09  3.66739049E-09  3.66739049E-09  3.66739049E-09  3.66739049E-09  3.66739049E-09
    3.66739049E-09  3.66739049E-09  3.66739049E-09  3.66739049E-09  3.66739049E-09  3.66739049E-09  3.66739049E-09  3.66739049E-09  3.66739049E-09  3.66739049E-09  3.66739049E-09  3.66739049E-09  3.66739049E-09
    3.66739049E-09  3.66739049E-09  3.66739049E-09  3.66739049E-09  3.66739049E-09  3.66739049E-09  3.66739049E-09  3.66739049E-09  3.66739049E-09  3.66739049E-09  3.66739049E-09  3.66739049E-09  3.66739049E-09  3.66739049E-09  3.66739049E-09  3.66739049E-09  3.66739049E-09  3.66739049E-09  3.66739049E-09  3.66739049E-09
    3.66739049E-09  3.66739049E-09  3.66739049E-09  3.66739049E-09  3.66739049E-09  3.66739049E-09  3.66739049E-09  3.66739049E-09  3.66739049E-09  3.66739049E-09  3.66739049E-09  3.66739049E-09  3.66739049E-09  3.66739049E-09  3.66739049E-09  3.66739049E-09  3.66739049E-09  3.66739049E-09  3.66739049E-09  3.66739049E-09
    3.66739049E-09  3.66739049E-09  3.66739049E-09  3.66739049E-09  3.66739049E-09  3.66739049E-09  3.66739049E-09  3.66739049E-09  3.66739049E-09  3.66739049E-09  3.66739049E-09  3.66739049E-09  3.66739049E-09  3.66739049E-09  3.66739049E-09  3.66739049E-09  3.66739049E-09  3.66739049E-09  3.66739049E-09  3.66739049E-09
    3.66739049E-09  3.66739049E-09  3.66739049E-09  3.66739049E-09  3.66739049E-09  3.66739049E-09  3.66739049E-09  3.66739049E-09  3.66739049E-09  3.66739049E-09  3.66739049E-09  3.66739049E-09  3.66739049E-09  3.66739049E-09  3.66739049E-09  3.66739049E-09  3.66739049E-09  3.66739049E-09  3.66739049E-09  3.66739049E-09
    3.66739049E-09  3.66739049E-09  3.66739049E-09  3.66739049E-09  3.66739049E-09  3.66739049E-09  3.66739049E-09  3.66739049E-09  3.66739049E-09  3.66739049E-09  3.66739049E-09  3.66739049E-09  3.66739049E-09  3.66739049E-09  3.66739049E-09  3.66739049E-09  3.66739049E-09  3.66739049E-09  3.66739049E-09  3.66739049E-09
    3.66739049E-09  3.66739049E-09  3.66739049E-09  3.66739049E-09  3.66739049E-09  3.66739049E-09  3.66739049E-09  3.66739049E-09  3.66739049E-09  3.66739049E-09  3.66739049E-09  3.66739049E-09  3.66739049E-09  3.66739049E-09  3.66739049E-09  3.66739049E-09  3.66739049E-09  3.66739049E-09  3.66739049E-09  3.66739049E-09
    3.66739049E-09  3.66739049E-09  3.66739049E-09  3.66739049E-09  3.66739049E-09  3.66739049E-09  3.66739049E-09  3.66739049E-09  3.66739049E-09  3.66739049E-09  3.66739049E-09  3.66739049E-09  3.66739049E-09  3.66739049E-09  3.66739049E-09  3.66739049E-09  3.66739049E-09  3.66739049E-09  3.66739049E-09  3.66739049E-09
    3.66739049E-09  3.66739049E-09  3.66739049E-09  3.66739049E-09  3.66739049E-09  3.66739049E-09  3.66739049E-09  3.66739049E-09  3.66739049E-09  3.66739049E-09  3.66739049E-09  3.66739049E-09  3.66739049E-09
    3.66739049E-09  3.66739049E-09  3.66739049E-09  3.66739049E-09  3.66739049E-09  3.66739049E-09  3.66739049E-09  3.66739049E-09  3.66739049E-09  3.66739049E-09  3.66739049E-09  3.66739049E-09  3.66739049E-09  3.66739049E-09  3.66739049E-09  3.66739049E-09  3.66739049E-09  3.66739049E-09  3.66739049E-09  3.66739049E-09
    3.66739049E-09  3.66739049E-09  3.66739049E-09  3.66739049E-09  3.66739049E-09  3.66739049E-09  3.66739049E-09  3.66739049E-09  3.66739049E-09  3.66739049E-09  3.66739049E-09  3.66739049E-09  3.66739049E-09  3.66739049E-09  3.66739049E-09  3.66739049E-09  3.66739049E-09  3.66739049E-09  3.66739049E-09  3.66739049E-09
    3.66739049E-09  3.66739049E-09  3.66739049E-09  3.66739049E-09  3.66739049E-09  3.66739049E-09  3.66739049E-09  3.66739049E-09  3.66739049E-09  3.66739049E-09  3.66739049E-09  3.66739049E-09  3.66739049E-09  3.66739049E-09  3.66739049E-09  3.66739049E-09  3.66739049E-09  3.66739049E-09  3.66739049E-09  3.66739049E-09
    3.66739049E-09  3.66739049E-09  3.66739049E-09  3.66739049E-09  3.66739049E-09  3.66739049E-09  3.66739049E-09  3.66739049E-09  3.66739049E-09  3.66739049E-09  3.66739049E-09  3.66739049E-09  3.66739049E-09  3.66739049E-09  3.66739049E-09  3.66739049E-09  3.66739049E-09  3.66739049E-09  3.66739049E-09  3.66739049E-09
    3.66739049E-09  3.66739049E-09  3.66739049E-09  3.66739049E-09  3.66739049E-09  3.66739049E-09  3.66739049E-09  3.66739049E-09  3.66739049E-09  3.66739049E-09  3.66739049E-09  3.66739049E-09  3.66739049E-09  3.66739049E-09  3.66739049E-09  3.66739049E-09  3.66739049E-09  3.66739049E-09  3.66739049E-09  3.66739049E-09
    3.66739049E-09  3.66739049E-09  3.66739049E-09  3.66739049E-09  3.66739049E-09  3.66739049E-09  3.66739049E-09  3.66739049E-09  3.66739049E-09  3.66739049E-09  3.66739049E-09  3.66739049E-09  3.66739049E-09  3.66739049E-09  3.66739049E-09  3.66739049E-09  3.66739049E-09  3.66739049E-09  3.66739049E-09  3.66739049E-09
    3.66739049E-09  3.66739049E-09  3.66739049E-09  3.66739049E-09  3.66739049E-09  3.66739049E-09  3.66739049E-09  3.66739049E-09  3.66739049E-09  3.66739049E-09  3.66739049E-09  3.66739049E-09  3.66739049E-09  3.66739049E-09  3.66739049E-09  3.66739049E-09  3.66739049E-09  3.66739049E-09  3.66739049E-09  3.66739049E-09
    3.66739049E-09  3.66739049E-09  3.66739049E-09  3.66739049E-09  3.66739049E-09  3.66739049E-09  3.66739049E-09  3.66739049E-09  3.66739049E-09  3.66739049E-09  3.66739049E-09  3.66739049E-09  3.66739049E-09