BEGIN options
  SAVE_FLOWS
END options

BEGIN dimensions
  MAXBOUND  645
END dimensions

BEGIN period  1
  1 15 145       0.00000000
  1 16 145       0.00000000
  1 16 146       0.00000000
  1 16 147       0.00000000
  1 17 144       0.00000000
  1 17 145       0.00000000
  1 17 146       0.00000000
  1 17 147       0.00000000
  1 18 135       0.00000000
  1 18 136       0.00000000
  1 18 137       0.00000000
  1 18 138       0.00000000
  1 18 140       0.00000000
  1 18 141       0.00000000
  1 18 142       0.00000000
  1 18 143       0.00000000
  1 18 144       0.00000000
  1 18 145       0.00000000
  1 18 146       0.00000000
  1 18 147       0.00000000
  1 19 134       0.00000000
  1 19 135       0.00000000
  1 19 136       0.00000000
  1 19 137       0.00000000
  1 19 138       0.00000000
  1 19 139       0.00000000
  1 19 140       0.00000000
  1 19 141       0.00000000
  1 19 142       0.00000000
  1 19 143       0.00000000
  1 19 144       0.00000000
  1 19 145       0.00000000
  1 19 146       0.00000000
  1 20 133       0.00000000
  1 20 134       0.00000000
  1 20 135       0.00000000
  1 20 136       0.00000000
  1 20 137       0.00000000
  1 20 138       0.00000000
  1 20 139       0.00000000
  1 20 140       0.00000000
  1 20 141       0.00000000
  1 20 142       0.00000000
  1 20 143       0.00000000
  1 20 144       0.00000000
  1 20 145       0.00000000
  1 20 146       0.00000000
  1 20 147       0.00000000
  1 21 133       0.00000000
  1 21 134       0.00000000
  1 21 135       0.00000000
  1 21 136       0.00000000
  1 21 137       0.00000000
  1 21 138       0.00000000
  1 21 139       0.00000000
  1 21 140       0.00000000
  1 21 141       0.00000000
  1 21 142       0.00000000
  1 21 143       0.00000000
  1 21 144       0.00000000
  1 21 145       0.00000000
  1 21 146       0.00000000
  1 22 133       0.00000000
  1 22 134       0.00000000
  1 22 135       0.00000000
  1 22 136       0.00000000
  1 22 137       0.00000000
  1 22 138       0.00000000
  1 22 139       0.00000000
  1 22 140       0.00000000
  1 22 141       0.00000000
  1 22 142       0.00000000
  1 22 143       0.00000000
  1 22 144       0.00000000
  1 22 145       0.00000000
  1 22 146       0.00000000
  1 23 133       0.00000000
  1 23 134       0.00000000
  1 23 135       0.00000000
  1 23 136       0.00000000
  1 23 137       0.00000000
  1 23 138       0.00000000
  1 23 139       0.00000000
  1 23 140       0.00000000
  1 23 141       0.00000000
  1 23 142       0.00000000
  1 23 143       0.00000000
  1 23 144       0.00000000
  1 23 145       0.00000000
  1 24 133       0.00000000
  1 24 134       0.00000000
  1 24 135       0.00000000
  1 24 136       0.00000000
  1 24 137       0.00000000
  1 24 138       0.00000000
  1 24 139       0.00000000
  1 24 140       0.00000000
  1 24 141       0.00000000
  1 24 142       0.00000000
  1 24 143       0.00000000
  1 24 144       0.00000000
  1 24 145       0.00000000
  1 25 134       0.00000000
  1 25 135       0.00000000
  1 25 136       0.00000000
  1 25 137       0.00000000
  1 25 138       0.00000000
  1 25 139       0.00000000
  1 25 140       0.00000000
  1 25 141       0.00000000
  1 25 142       0.00000000
  1 25 143       0.00000000
  1 25 144       0.00000000
  1 26 134       0.00000000
  1 26 135       0.00000000
  1 26 136       0.00000000
  1 26 137       0.00000000
  1 26 138       0.00000000
  1 26 139       0.00000000
  1 26 140       0.00000000
  1 26 141       0.00000000
  1 26 142       0.00000000
  1 26 143       0.00000000
  1 26 144       0.00000000
  1 27 132       0.00000000
  1 27 133       0.00000000
  1 27 134       0.00000000
  1 27 135       0.00000000
  1 27 136       0.00000000
  1 27 137       0.00000000
  1 27 138       0.00000000
  1 27 139       0.00000000
  1 27 140       0.00000000
  1 27 141       0.00000000
  1 27 142       0.00000000
  1 27 143       0.00000000
  1 28 132       0.00000000
  1 28 133       0.00000000
  1 28 134       0.00000000
  1 28 135       0.00000000
  1 28 136       0.00000000
  1 28 137       0.00000000
  1 28 138       0.00000000
  1 28 139       0.00000000
  1 28 140       0.00000000
  1 28 141       0.00000000
  1 28 142       0.00000000
  1 29 131       0.00000000
  1 29 132       0.00000000
  1 29 133       0.00000000
  1 29 134       0.00000000
  1 29 135       0.00000000
  1 29 136       0.00000000
  1 29 137       0.00000000
  1 29 138       0.00000000
  1 29 139       0.00000000
  1 29 140       0.00000000
  1 29 141       0.00000000
  1 29 142       0.00000000
  1 30 130       0.00000000
  1 30 131       0.00000000
  1 30 132       0.00000000
  1 30 133       0.00000000
  1 30 134       0.00000000
  1 30 135       0.00000000
  1 30 136       0.00000000
  1 30 137       0.00000000
  1 30 138       0.00000000
  1 30 139       0.00000000
  1 30 140       0.00000000
  1 30 141       0.00000000
  1 31 127       0.00000000
  1 31 128       0.00000000
  1 31 129       0.00000000
  1 31 130       0.00000000
  1 31 131       0.00000000
  1 31 132       0.00000000
  1 31 133       0.00000000
  1 31 134       0.00000000
  1 31 135       0.00000000
  1 31 136       0.00000000
  1 31 137       0.00000000
  1 31 138       0.00000000
  1 31 139       0.00000000
  1 31 140       0.00000000
  1 31 141       0.00000000
  1 32 127       0.00000000
  1 32 128       0.00000000
  1 32 129       0.00000000
  1 32 130       0.00000000
  1 32 131       0.00000000
  1 32 132       0.00000000
  1 32 133       0.00000000
  1 32 134       0.00000000
  1 32 135       0.00000000
  1 32 136       0.00000000
  1 32 137       0.00000000
  1 32 138       0.00000000
  1 32 139       0.00000000
  1 32 140       0.00000000
  1 32 141       0.00000000
  1 33 126       0.00000000
  1 33 127       0.00000000
  1 33 128       0.00000000
  1 33 129       0.00000000
  1 33 130       0.00000000
  1 33 131       0.00000000
  1 33 132       0.00000000
  1 33 133       0.00000000
  1 33 134       0.00000000
  1 33 135       0.00000000
  1 33 136       0.00000000
  1 33 137       0.00000000
  1 33 138       0.00000000
  1 33 139       0.00000000
  1 33 141       0.00000000
  1 33 142       0.00000000
  1 34 124       0.00000000
  1 34 125       0.00000000
  1 34 126       0.00000000
  1 34 127       0.00000000
  1 34 128       0.00000000
  1 34 129       0.00000000
  1 34 130       0.00000000
  1 34 131       0.00000000
  1 34 132       0.00000000
  1 34 133       0.00000000
  1 34 134       0.00000000
  1 34 135       0.00000000
  1 34 136       0.00000000
  1 34 137       0.00000000
  1 34 138       0.00000000
  1 34 139       0.00000000
  1 34 140       0.00000000
  1 34 141       0.00000000
  1 34 142       0.00000000
  1 35 123       0.00000000
  1 35 124       0.00000000
  1 35 125       0.00000000
  1 35 126       0.00000000
  1 35 127       0.00000000
  1 35 128       0.00000000
  1 35 129       0.00000000
  1 35 130       0.00000000
  1 35 131       0.00000000
  1 35 132       0.00000000
  1 35 133       0.00000000
  1 35 134       0.00000000
  1 35 135       0.00000000
  1 35 136       0.00000000
  1 35 137       0.00000000
  1 35 138       0.00000000
  1 35 139       0.00000000
  1 35 140       0.00000000
  1 35 141       0.00000000
  1 35 142       0.00000000
  1 35 143       0.00000000
  1 36 122       0.00000000
  1 36 123       0.00000000
  1 36 124       0.00000000
  1 36 125       0.00000000
  1 36 126       0.00000000
  1 36 127       0.00000000
  1 36 128       0.00000000
  1 36 129       0.00000000
  1 36 130       0.00000000
  1 36 131       0.00000000
  1 36 132       0.00000000
  1 36 133       0.00000000
  1 36 134       0.00000000
  1 36 135       0.00000000
  1 36 136       0.00000000
  1 36 137       0.00000000
  1 36 138       0.00000000
  1 36 139       0.00000000
  1 36 140       0.00000000
  1 36 141       0.00000000
  1 36 143       0.00000000
  1 37 122       0.00000000
  1 37 123       0.00000000
  1 37 124       0.00000000
  1 37 125       0.00000000
  1 37 126       0.00000000
  1 37 127       0.00000000
  1 37 128       0.00000000
  1 37 129       0.00000000
  1 37 130       0.00000000
  1 37 131       0.00000000
  1 37 132       0.00000000
  1 37 133       0.00000000
  1 37 134       0.00000000
  1 37 135       0.00000000
  1 37 136       0.00000000
  1 37 137       0.00000000
  1 37 138       0.00000000
  1 37 139       0.00000000
  1 37 140       0.00000000
  1 37 141       0.00000000
  1 37 143       0.00000000
  1 38 122       0.00000000
  1 38 123       0.00000000
  1 38 124       0.00000000
  1 38 125       0.00000000
  1 38 126       0.00000000
  1 38 127       0.00000000
  1 38 128       0.00000000
  1 38 129       0.00000000
  1 38 130       0.00000000
  1 38 131       0.00000000
  1 38 132       0.00000000
  1 38 133       0.00000000
  1 38 134       0.00000000
  1 38 135       0.00000000
  1 38 136       0.00000000
  1 38 137       0.00000000
  1 38 138       0.00000000
  1 38 139       0.00000000
  1 38 140       0.00000000
  1 38 143       0.00000000
  1 39 121       0.00000000
  1 39 122       0.00000000
  1 39 123       0.00000000
  1 39 124       0.00000000
  1 39 125       0.00000000
  1 39 126       0.00000000
  1 39 127       0.00000000
  1 39 128       0.00000000
  1 39 129       0.00000000
  1 39 130       0.00000000
  1 39 131       0.00000000
  1 39 132       0.00000000
  1 39 133       0.00000000
  1 39 134       0.00000000
  1 39 135       0.00000000
  1 39 136       0.00000000
  1 39 137       0.00000000
  1 39 138       0.00000000
  1 39 139       0.00000000
  1 40 121       0.00000000
  1 40 122       0.00000000
  1 40 123       0.00000000
  1 40 124       0.00000000
  1 40 125       0.00000000
  1 40 126       0.00000000
  1 40 127       0.00000000
  1 40 128       0.00000000
  1 40 129       0.00000000
  1 40 130       0.00000000
  1 40 131       0.00000000
  1 40 132       0.00000000
  1 40 133       0.00000000
  1 40 134       0.00000000
  1 40 135       0.00000000
  1 40 136       0.00000000
  1 40 137       0.00000000
  1 40 138       0.00000000
  1 40 139       0.00000000
  1 40 140       0.00000000
  1 40 141       0.00000000
  1 40 143       0.00000000
  1 41 120       0.00000000
  1 41 121       0.00000000
  1 41 124       0.00000000
  1 41 125       0.00000000
  1 41 126       0.00000000
  1 41 127       0.00000000
  1 41 128       0.00000000
  1 41 129       0.00000000
  1 41 130       0.00000000
  1 41 131       0.00000000
  1 41 132       0.00000000
  1 41 133       0.00000000
  1 41 134       0.00000000
  1 41 135       0.00000000
  1 41 136       0.00000000
  1 41 137       0.00000000
  1 41 138       0.00000000
  1 41 139       0.00000000
  1 41 140       0.00000000
  1 41 141       0.00000000
  1 41 142       0.00000000
  1 41 143       0.00000000
  1 42 124       0.00000000
  1 42 125       0.00000000
  1 42 126       0.00000000
  1 42 127       0.00000000
  1 42 128       0.00000000
  1 42 129       0.00000000
  1 42 130       0.00000000
  1 42 131       0.00000000
  1 42 132       0.00000000
  1 42 133       0.00000000
  1 42 134       0.00000000
  1 42 135       0.00000000
  1 42 136       0.00000000
  1 42 137       0.00000000
  1 42 138       0.00000000
  1 42 139       0.00000000
  1 42 140       0.00000000
  1 42 141       0.00000000
  1 42 142       0.00000000
  1 43 124       0.00000000
  1 43 125       0.00000000
  1 43 126       0.00000000
  1 43 127       0.00000000
  1 43 128       0.00000000
  1 43 129       0.00000000
  1 43 130       0.00000000
  1 43 131       0.00000000
  1 43 132       0.00000000
  1 43 133       0.00000000
  1 43 134       0.00000000
  1 43 135       0.00000000
  1 43 136       0.00000000
  1 43 137       0.00000000
  1 43 139       0.00000000
  1 43 140       0.00000000
  1 43 141       0.00000000
  1 43 142       0.00000000
  1 44 125       0.00000000
  1 44 126       0.00000000
  1 44 127       0.00000000
  1 44 128       0.00000000
  1 44 129       0.00000000
  1 44 130       0.00000000
  1 44 131       0.00000000
  1 44 132       0.00000000
  1 44 133       0.00000000
  1 44 134       0.00000000
  1 44 135       0.00000000
  1 44 136       0.00000000
  1 44 137       0.00000000
  1 44 138       0.00000000
  1 44 139       0.00000000
  1 44 140       0.00000000
  1 44 141       0.00000000
  1 45 125       0.00000000
  1 45 126       0.00000000
  1 45 127       0.00000000
  1 45 128       0.00000000
  1 45 129       0.00000000
  1 45 130       0.00000000
  1 45 131       0.00000000
  1 45 132       0.00000000
  1 45 133       0.00000000
  1 45 134       0.00000000
  1 45 135       0.00000000
  1 45 136       0.00000000
  1 45 137       0.00000000
  1 45 138       0.00000000
  1 45 139       0.00000000
  1 45 140       0.00000000
  1 45 141       0.00000000
  1 46 125       0.00000000
  1 46 126       0.00000000
  1 46 127       0.00000000
  1 46 128       0.00000000
  1 46 129       0.00000000
  1 46 130       0.00000000
  1 46 131       0.00000000
  1 46 132       0.00000000
  1 46 133       0.00000000
  1 46 134       0.00000000
  1 46 135       0.00000000
  1 46 136       0.00000000
  1 46 137       0.00000000
  1 46 138       0.00000000
  1 46 139       0.00000000
  1 47 125       0.00000000
  1 47 126       0.00000000
  1 47 127       0.00000000
  1 47 128       0.00000000
  1 47 129       0.00000000
  1 47 130       0.00000000
  1 47 131       0.00000000
  1 47 132       0.00000000
  1 47 133       0.00000000
  1 47 134       0.00000000
  1 47 135       0.00000000
  1 47 136       0.00000000
  1 47 137       0.00000000
  1 47 138       0.00000000
  1 47 139       0.00000000
  1 47 140       0.00000000
  1 47 141       0.00000000
  1 48 126       0.00000000
  1 48 127       0.00000000
  1 48 128       0.00000000
  1 48 129       0.00000000
  1 48 130       0.00000000
  1 48 131       0.00000000
  1 48 132       0.00000000
  1 48 133       0.00000000
  1 48 134       0.00000000
  1 48 135       0.00000000
  1 48 136       0.00000000
  1 48 137       0.00000000
  1 48 138       0.00000000
  1 49 126       0.00000000
  1 49 127       0.00000000
  1 49 128       0.00000000
  1 49 129       0.00000000
  1 49 130       0.00000000
  1 49 131       0.00000000
  1 49 132       0.00000000
  1 49 133       0.00000000
  1 49 134       0.00000000
  1 49 135       0.00000000
  1 49 136       0.00000000
  1 49 137       0.00000000
  1 49 138       0.00000000
  1 49 139       0.00000000
  1 50 126       0.00000000
  1 50 127       0.00000000
  1 50 128       0.00000000
  1 50 129       0.00000000
  1 50 130       0.00000000
  1 50 131       0.00000000
  1 50 132       0.00000000
  1 50 133       0.00000000
  1 50 134       0.00000000
  1 50 135       0.00000000
  1 50 136       0.00000000
  1 50 137       0.00000000
  1 50 138       0.00000000
  1 50 139       0.00000000
  1 50 140       0.00000000
  1 50 141       0.00000000
  1 51 127       0.00000000
  1 51 128       0.00000000
  1 51 129       0.00000000
  1 51 130       0.00000000
  1 51 131       0.00000000
  1 51 132       0.00000000
  1 51 133       0.00000000
  1 51 134       0.00000000
  1 51 135       0.00000000
  1 51 136       0.00000000
  1 51 137       0.00000000
  1 51 138       0.00000000
  1 51 139       0.00000000
  1 51 140       0.00000000
  1 51 141       0.00000000
  1 52 127       0.00000000
  1 52 128       0.00000000
  1 52 129       0.00000000
  1 52 130       0.00000000
  1 52 131       0.00000000
  1 52 132       0.00000000
  1 52 133       0.00000000
  1 52 134       0.00000000
  1 52 135       0.00000000
  1 52 136       0.00000000
  1 52 138       0.00000000
  1 52 139       0.00000000
  1 52 140       0.00000000
  1 52 141       0.00000000
  1 53 129       0.00000000
  1 53 130       0.00000000
  1 53 131       0.00000000
  1 53 132       0.00000000
  1 53 133       0.00000000
  1 53 140       0.00000000
  1 53 141       0.00000000
  1 54 143       0.00000000
  1 96 139       0.00000000
  1 97 135       0.00000000
  1 97 136       0.00000000
  1 97 137       0.00000000
  1 97 138       0.00000000
  1 97 139       0.00000000
  1 97 140       0.00000000
  1 97 141       0.00000000
  1 98 134       0.00000000
  1 98 135       0.00000000
  1 98 136       0.00000000
  1 98 137       0.00000000
  1 98 138       0.00000000
  1 98 139       0.00000000
  1 98 140       0.00000000
  1 98 141       0.00000000
  1 99 134       0.00000000
  1 99 135       0.00000000
  1 99 136       0.00000000
  1 99 137       0.00000000
  1 99 138       0.00000000
  1 99 139       0.00000000
  1 99 140       0.00000000
  1 99 141       0.00000000
  1 100 134       0.00000000
  1 100 135       0.00000000
  1 100 136       0.00000000
  1 100 137       0.00000000
  1 100 138       0.00000000
  1 100 139       0.00000000
  1 100 140       0.00000000
  1 100 141       0.00000000
  1 101 134       0.00000000
  1 101 135       0.00000000
  1 101 136       0.00000000
  1 101 139       0.00000000
  1 101 140       0.00000000
  1 101 141       0.00000000
  1 101 142       0.00000000
  1 102 138       0.00000000
  1 102 139       0.00000000
  1 102 140       0.00000000
  1 102 141       0.00000000
  1 102 142       0.00000000
  1 103 138       0.00000000
  1 103 139       0.00000000
  1 103 140       0.00000000
  1 103 141       0.00000000
  1 103 142       0.00000000
  1 104 138       0.00000000
  1 104 139       0.00000000
  1 104 140       0.00000000
  1 104 141       0.00000000
  1 105 138       0.00000000
  1 105 139       0.00000000
  1 105 140       0.00000000
  1 105 141       0.00000000
  1 105 142       0.00000000
  1 106 137       0.00000000
  1 106 138       0.00000000
  1 106 139       0.00000000
  1 106 140       0.00000000
  1 106 141       0.00000000
  1 107 138       0.00000000
  1 107 139       0.00000000
  1 107 140       0.00000000
  1 107 141       0.00000000
  1 108 138       0.00000000
  1 108 139       0.00000000
  1 108 140       0.00000000
  1 108 141       0.00000000
  1 108 142       0.00000000
  1 109 139       0.00000000
  1 109 140       0.00000000
  1 109 141       0.00000000
  1 109 142       0.00000000
  1 110 139       0.00000000
  1 110 140       0.00000000
  1 110 141       0.00000000
  1 111 140       0.00000000
END period  1

