BEGIN options
  TIME_UNITS  seconds
END options

BEGIN dimensions
  NPER  24
END dimensions

BEGIN perioddata
       1.00000000  1       1.00000000
  2.59200000E+06  10       1.00000000
  2.59200000E+06  10       1.00000000
  2.59200000E+06  10       1.00000000
  2.59200000E+06  10       1.00000000
  2.59200000E+06  10       1.00000000
  2.59200000E+06  10       1.00000000
  2.59200000E+06  10       1.00000000
  2.59200000E+06  10       1.00000000
  2.59200000E+06  10       1.00000000
  2.59200000E+06  10       1.00000000
  2.59200000E+06  10       1.00000000
  2.59200000E+06  10       1.00000000
  2.59200000E+06  10       1.00000000
  2.59200000E+06  10       1.00000000
  2.59200000E+06  10       1.00000000
  2.59200000E+06  10       1.00000000
  2.59200000E+06  10       1.00000000
  2.59200000E+06  10       1.00000000
  2.59200000E+06  10       1.00000000
  2.59200000E+06  10       1.00000000
  2.59200000E+06  10       1.00000000
  2.59200000E+06  10       1.00000000
  2.59200000E+06  10       1.00000000
END perioddata

