BEGIN options
END options

BEGIN dimensions
  MAXBOUND  406
END dimensions

BEGIN period  1
  1 101 130      -0.00913759
  1 81 137      -0.00433229
  1 98 117      -0.00120240
  1 97 118      -0.01802905
  1 79 109  -7.36681887E-04
  1 78 114      -0.01063921
  1 78 114      -0.01852448
  1 94 116      -0.01352007
  1 105 117      -0.00790589
  1 70 133      -0.00495412
  1 94 80      -0.00383454
  1 96 81      -0.01462427
  1 104 89      -0.02368861
  1 90 97      -0.02338258
  1 90 94  -8.87874176E-04
  1 91 85      -0.00760195
  1 94 58      -0.04297939
  1 100 62      -0.00362649
  1 94 42      -0.00353678
  1 95 41  -7.87037037E-05
  1 63 88      -0.00887373
  1 91 59      -0.00407300
  1 88 135      -0.00839365
  1 68 101      -0.01678393
  1 101 68  -9.69748858E-04
  1 131 83      -0.00856164
  1 50 115  -4.81988838E-04
  1 104 82  -5.40969051E-04
  1 93 66  -9.51293760E-05
  1 91 61  -1.14155251E-04
  1 105 63      -0.00129316
  1 143 106      -0.00879287
  1 121 132      -0.00235661
  1 113 128      -0.00948354
  1 121 132      -0.00945152
  1 128 136      -0.01234592
  1 121 132      -0.01003656
  1 121 132      -0.00911726
  1 121 132      -0.00450289
  1 126 101      -0.00279408
  1 106 118      -0.00665690
  1 113 121      -0.00289422
  1 115 97      -0.00620316
  1 110 89  -2.17846271E-05
  1 118 84      -0.01136771
  1 88 136      -0.00407788
  1 76 142      -0.00881837
  1 95 133      -0.01169032
  1 87 134      -0.00828057
  1 89 140      -0.01047974
  1 79 139      -0.01826113
  1 96 142      -0.00747121
  1 143 106      -0.00560458
  1 142 107      -0.00367526
  1 143 107      -0.01485769
  1 131 137  -8.56164384E-04
  1 129 133      -0.01079354
  1 121 132      -0.00625856
  1 126 127      -0.00134434
  1 128 136      -0.05300685
  1 112 101      -0.00407132
  1 127 115      -0.00789346
  1 120 110      -0.00729154
  1 123 110      -0.00733206
  1 125 112      -0.00828494
  1 127 113      -0.00909358
  1 119 120      -0.00438981
  1 131 122      -0.00368760
  1 114 110      -0.01084928
  1 124 101  -9.30365297E-04
  1 125 117      -0.01212129
  1 126 103      -0.00822089
  1 158 84      -0.02064181
  1 146 100      -0.00379665
  1 162 77      -0.00790512
  1 153 92  -6.31151700E-04
  1 105 88      -0.01117596
  1 128 90  -7.82090309E-04
  1 123 78      -0.00677010
  1 126 68      -0.01167057
  1 112 64      -0.01803574
  1 134 72      -0.01236682
  1 128 70      -0.00100285
  1 116 66      -0.01822045
  1 114 67      -0.00106215
  1 107 22      -0.00924978
  1 86 142  -2.45846017E-04
  1 101 131      -0.00779344
  1 80 130      -0.00245798
  1 87 116  -6.34195840E-04
  1 103 122  -9.51293760E-06
  1 83 110  -1.36352106E-04
  1 98 107      -0.01218246
  1 85 104      -0.00358688
  1 90 107  -3.67833587E-06
  1 82 103      -0.00565088
  1 99 114      -0.00133942
  1 64 130      -0.00422130
  1 69 136      -0.00477559
  1 59 126      -0.00433143
  1 70 133      -0.00495294
  1 65 129      -0.01609821
  1 62 134      -0.00599505
  1 59 132      -0.00937288
  1 55 131      -0.01470605
  1 71 107      -0.01688559
  1 69 121      -0.00794930
  1 42 112      -0.00688118
  1 68 108  -3.80517504E-05
  1 45 120  -1.42694064E-04
  1 62 124      -0.00452353
  1 51 109  -2.16197362E-04
  1 62 99      -0.00150520
  1 85 87      -0.00905410
  1 92 96      -0.00901164
  1 96 97  -1.74530695E-04
  1 102 87      -0.00116920
  1 86 88      -0.01088401
  1 90 97  -4.27416286E-04
  1 88 78      -0.01101376
  1 86 91      -0.01008333
  1 96 55      -0.01522726
  1 94 56      -0.02730654
  1 94 56      -0.00204871
  1 93 75  -5.06659056E-04
  1 103 64  -3.80517504E-04
  1 92 70      -0.00893690
  1 100 57      -0.11600828
  1 91 40  -1.39681634E-04
  1 94 45      -0.06838499
  1 94 45      -0.02161574
  1 92 51      -0.01389374
  1 104 38  -1.61244292E-04
  1 70 98      -0.00894882
  1 71 93      -0.00320329
  1 60 93  -3.32952816E-04
  1 62 98      -0.00870687
  1 143 108  -3.54832572E-04
  1 131 122      -0.01708222
  1 116 66      -0.01972707
  1 73 135      -0.00385813
  1 86 142  -2.05701421E-04
  1 78 109      -0.00271100
  1 82 103      -0.00565088
  1 57 136      -0.00853244
  1 59 126      -0.01112833
  1 60 125      -0.00529097
  1 59 133      -0.00443610
  1 60 125      -0.00511162
  1 63 108      -0.00256355
  1 62 124      -0.00641521
  1 56 108  -7.59069001E-04
  1 96 55      -0.02256938
  1 38 144      -0.00972501
  1 136 133  -2.21968544E-04
  1 120 101  -3.98592085E-04
  1 124 106  -3.80517504E-04
  1 123 107  -2.37823440E-05
  1 93 84  -2.04845256E-04
  1 87 132      -0.00158549
  1 109 89  -2.16894977E-04
  1 57 116  -1.90258752E-04
  1 70 123      -0.00253678
  1 76 126  -6.65905632E-04
  1 106 87  -8.68848300E-05
  1 132 137  -2.02942669E-04
  1 128 126  -3.55149670E-04
  1 100 40  -4.66133942E-04
  1 101 27  -1.85660832E-04
  1 100 47  -5.07356672E-04
  1 94 53  -1.80745814E-04
  1 94 38  -2.85388128E-04
  1 96 42  -3.10755961E-04
  1 92 43  -6.34195840E-04
  1 97 42  -5.07356672E-04
  1 94 40  -1.90258752E-04
  1 98 42  -4.42351598E-04
  1 96 41  -1.98503298E-04
  1 95 44  -5.67605277E-04
  1 95 44  -1.10984272E-04
  1 95 40  -2.12455606E-04
  1 138 116  -1.38381532E-04
  1 136 127  -1.26839168E-04
  1 135 121  -2.91254439E-04
  1 83 106  -1.26839168E-04
  1 69 111      -0.00190259
  1 71 115  -7.61035008E-04
  1 73 115  -4.75646880E-05
  1 72 117  -6.34195840E-04
  1 68 106  -1.01471334E-04
  1 70 109  -6.34195840E-04
  1 72 114  -9.51293760E-05
  1 73 117  -1.77574835E-04
  1 66 107  -6.18340944E-04
  1 59 93  -4.75646880E-04
  1 101 59  -3.80517504E-04
  1 103 58  -3.80517504E-04
  1 104 67  -3.80517504E-04
  1 99 63  -7.13470320E-05
  1 103 63  -3.80517504E-04
  1 96 61  -3.80517504E-04
  1 99 65  -3.80517504E-04
  1 100 65  -4.92770167E-04
  1 140 118      -0.00846651
  1 58 129  -1.90258752E-04
  1 58 128  -2.85388128E-04
  1 55 130  -2.66362253E-04
  1 56 125  -1.14155251E-04
  1 60 122  -1.90258752E-04
  1 62 125  -7.22983257E-04
  1 59 131  -1.26839168E-04
  1 61 130  -2.53678336E-05
  1 59 129  -6.34195840E-04
  1 44 120  -1.90258752E-04
  1 43 120  -2.37823440E-04
  1 108 65  -3.55149670E-04
  1 67 134  -1.20497210E-04
  1 68 140  -1.52207002E-04
  1 67 133  -5.83460173E-04
  1 67 135      -0.00126839
  1 67 136      -0.00126839
  1 67 135  -2.53678336E-04
  1 73 130  -9.51293760E-04
  1 73 129  -3.80517504E-04
  1 76 130  -4.56621005E-04
  1 72 132  -5.77118214E-04
  1 73 132  -3.17097920E-04
  1 73 127  -5.39066464E-04
  1 105 80  -2.02942669E-04
  1 83 129  -5.07356672E-04
  1 83 127  -1.52207002E-04
  1 83 125  -5.07356672E-04
  1 83 124  -6.34195840E-04
  1 81 123  -2.66362253E-04
  1 84 122  -1.26839168E-04
  1 82 123  -1.01471334E-04
  1 82 131  -1.90258752E-04
  1 84 124  -1.01471334E-04
  1 83 129  -7.48351091E-05
  1 84 124      -0.00122400
  1 77 129  -8.62506342E-04
  1 149 106  -5.70776256E-04
  1 90 79  -1.58548960E-04
  1 38 113  -1.90258752E-04
  1 98 56  -2.06113648E-05
  1 79 121  -5.07356672E-04
  1 77 120  -1.58548960E-04
  1 105 52      -0.00153355
  1 108 80  -3.80517504E-04
  1 108 59  -4.28082192E-04
  1 77 118  -1.71232877E-04
  1 132 134      -0.00232024
  1 98 34      -0.00108457
  1 101 49  -6.34830036E-04
  1 97 44  -2.85388128E-04
  1 94 44  -1.18911720E-04
  1 95 44  -4.71841705E-04
  1 84 109  -2.85388128E-04
  1 88 115  -8.16812532E-04
  1 116 90      -0.00107211
  1 88 99  -2.85388128E-04
  1 104 69      -0.00761035
  1 100 66  -1.90258752E-04
  1 44 119  -2.28310502E-04
  1 106 79  -9.51293760E-04
  1 119 88  -6.67808219E-04
  1 82 126  -5.07356672E-04
  1 82 127  -1.90258752E-04
  1 82 127  -1.21765601E-04
  1 77 127  -7.29325216E-04
  1 33 121      -0.00194857
  1 103 59  -5.70776256E-04
  1 110 81  -8.87874176E-05
  1 62 96  -5.89548453E-04
  1 60 91  -5.70776256E-04
  1 102 68  -6.72247590E-04
  1 55 131      -0.00751522
  1 57 125  -5.39066464E-04
  1 54 117  -5.70776256E-04
  1 57 134  -1.26839168E-04
  1 61 135  -4.43937088E-05
  1 62 135  -6.34195840E-04
  1 59 130  -2.70167428E-04
  1 105 130  -3.64662608E-04
  1 46 117  -4.69304921E-05
  1 43 115  -1.42694064E-04
  1 45 111  -2.98706240E-04
  1 48 110  -6.34195840E-05
  1 113 119      -0.00232024
  1 106 73      -0.00133181
  1 105 75      -0.00123668
  1 115 65  -1.64890918E-04
  1 108 76      -0.00237823
  1 107 62  -1.61085743E-04
  1 111 68  -3.08282598E-04
  1 68 138  -3.75443937E-04
  1 67 134  -6.34195840E-04
  1 68 135  -3.17097920E-04
  1 105 80      -0.00132610
  1 108 76  -3.74175545E-04
  1 79 127  -7.92744800E-04
  1 81 128  -9.51293760E-05
  1 78 127  -4.85159817E-04
  1 80 130  -7.86402841E-05
  1 82 126  -3.17097920E-04
  1 81 128      -0.00221969
  1 82 132  -4.75646880E-05
  1 81 128      -0.00143962
  1 96 58      -0.00406028
  1 80 131      -0.00294803
  1 116 129  -2.85388128E-04
  1 133 129      -0.01716086
  1 133 138  -6.97615424E-05
  1 125 135  -8.87874176E-04
  1 93 84  -9.86174531E-05
  1 85 114  -1.90258752E-04
  1 86 120      -0.00106317
  1 81 123  -2.09284627E-04
  1 83 115  -1.57978184E-04
  1 107 25      -0.00532725
  1 107 22      -0.00102645
  1 151 90  -3.91742770E-04
  1 86 132      -0.00190259
  1 109 88  -6.34195840E-04
  1 105 93  -5.70776256E-04
  1 68 115      -0.00155327
  1 74 126  -6.21511923E-04
  1 69 118  -2.02942669E-04
  1 129 125      -0.02072073
  1 131 127      -0.00283584
  1 132 137  -1.52207002E-04
  1 129 139  -6.59563673E-04
  1 128 131  -9.51293760E-05
  1 132 130  -1.26839168E-04
  1 126 125  -3.17097920E-04
  1 125 128  -6.49670218E-04
  1 60 90      -0.00383153
  1 106 27  -4.94672755E-04
  1 100 41  -2.91730086E-04
  1 97 36  -9.10705226E-04
  1 129 134  -8.37138508E-04
  1 125 137  -2.21968544E-04
  1 126 137  -3.17097920E-04
  1 128 135  -1.26839168E-04
  1 152 100      -0.00351195
  1 136 127  -2.28310502E-04
  1 135 128  -1.01471334E-04
  1 135 120  -5.95509893E-05
  1 141 129  -7.51490360E-04
  1 136 121  -6.78652968E-04
  1 140 121  -6.34195840E-04
  1 90 111  -2.56532217E-04
  1 88 118  -3.71955860E-04
  1 83 107  -3.80517504E-04
  1 79 108  -1.47989599E-04
  1 96 97  -6.03754439E-05
  1 93 76  -3.17097920E-04
  1 95 67  -5.07356672E-05
  1 72 115  -6.34195840E-04
  1 72 111  -3.17097920E-04
  1 70 114  -3.17097920E-04
  1 66 107  -3.75443937E-04
  1 71 117      -0.00179160
  1 73 112      -0.00114472
  1 68 108      -0.00126839
  1 73 117      -0.00126839
  1 72 112  -3.17097920E-04
  1 66 108  -4.75646880E-04
  1 112 101  -7.92744800E-06
  1 145 129      -0.00285388
  1 84 139      -0.00190259
  1 81 140  -8.33967529E-04
  1 81 140  -3.99543379E-04
  1 81 140  -9.51293760E-04
  1 81 137  -3.85020294E-04
  1 100 58  -1.71232877E-04
  1 101 57      -0.00133181
  1 99 61  -2.37823440E-04
  1 103 65  -2.15626585E-04
  1 99 67  -6.75418569E-05
  1 104 69      -0.00228311
  1 105 61  -3.80517504E-04
  1 106 61  -3.80517504E-04
  1 103 63  -3.80517504E-04
  1 80 130      -0.00142694
  1 78 127  -3.17097920E-04
  1 77 126  -1.90258752E-04
  1 82 132  -5.07356672E-04
  1 84 128  -9.51293760E-05
  1 84 129  -8.56164384E-04
  1 82 124  -6.34195840E-05
  1 131 92  -7.51204972E-05
  1 91 77  -6.34195840E-05
  1 134 72      -0.01119482
  1 38 144      -0.01019980
  1 129 91  -2.99784373E-04
  1 99 57  -2.18797565E-04
  1 42 112  -1.54268138E-04
  1 140 114      -0.01106298
  1 69 131  -9.51293760E-04
  1 69 130  -4.75646880E-04
  1 107 38  -5.70776256E-04
  1 146 137  -2.94457128E-04
  1 83 127  -3.99543379E-04
  1 61 96  -5.57141045E-05
  1 137 137  -3.55149670E-04
END period  1

