BEGIN options
  READASARRAYS
END options

BEGIN period  1
  recharge
    CONSTANT       0.00273973
END period  1

BEGIN period  2
  recharge
    CONSTANT       0.00328767
END period  2

BEGIN period  3
  recharge
    CONSTANT       0.00246575
END period  3

BEGIN period  4
  recharge
    CONSTANT       0.00164384
END period  4

BEGIN period  5
  recharge
    CONSTANT       0.00123288
END period  5

BEGIN period  6
  recharge
    CONSTANT  8.21917808E-04
END period  6

BEGIN period  7
  recharge
    CONSTANT  5.47945205E-04
END period  7

BEGIN period  8
  recharge
    CONSTANT       0.00109589
END period  8

BEGIN period  9
  recharge
    CONSTANT       0.00164384
END period  9

BEGIN period  10
  recharge
    CONSTANT       0.00219178
END period  10

BEGIN period  11
  recharge
    CONSTANT       0.00246575
END period  11

BEGIN period  12
  recharge
    CONSTANT       0.00273973
END period  12

BEGIN period  13
  recharge
    CONSTANT       0.00273973
END period  13

BEGIN period  14
  recharge
    CONSTANT       0.00328767
END period  14

BEGIN period  15
  recharge
    CONSTANT       0.00246575
END period  15

BEGIN period  16
  recharge
    CONSTANT       0.00164384
END period  16

BEGIN period  17
  recharge
    CONSTANT       0.00123288
END period  17

BEGIN period  18
  recharge
    CONSTANT  8.21917808E-04
END period  18

BEGIN period  19
  recharge
    CONSTANT  5.47945205E-04
END period  19

BEGIN period  20
  recharge
    CONSTANT       0.00109589
END period  20

BEGIN period  21
  recharge
    CONSTANT       0.00164384
END period  21

BEGIN period  22
  recharge
    CONSTANT       0.00219178
END period  22

BEGIN period  23
  recharge
    CONSTANT       0.00246575
END period  23

BEGIN period  24
  recharge
    CONSTANT       0.00273973
END period  24

BEGIN period  25
  recharge
    CONSTANT       0.00273973
END period  25

BEGIN period  26
  recharge
    CONSTANT       0.00328767
END period  26

BEGIN period  27
  recharge
    CONSTANT       0.00246575
END period  27

BEGIN period  28
  recharge
    CONSTANT       0.00164384
END period  28

BEGIN period  29
  recharge
    CONSTANT       0.00123288
END period  29

BEGIN period  30
  recharge
    CONSTANT  8.21917808E-04
END period  30

BEGIN period  31
  recharge
    CONSTANT  5.47945205E-04
END period  31

BEGIN period  32
  recharge
    CONSTANT       0.00109589
END period  32

BEGIN period  33
  recharge
    CONSTANT       0.00164384
END period  33

BEGIN period  34
  recharge
    CONSTANT       0.00219178
END period  34

BEGIN period  35
  recharge
    CONSTANT       0.00246575
END period  35

BEGIN period  36
  recharge
    CONSTANT       0.00273973
END period  36

BEGIN period  37
  recharge
    CONSTANT       0.00273973
END period  37

BEGIN period  38
  recharge
    CONSTANT       0.00328767
END period  38

BEGIN period  39
  recharge
    CONSTANT       0.00246575
END period  39

BEGIN period  40
  recharge
    CONSTANT       0.00164384
END period  40

BEGIN period  41
  recharge
    CONSTANT       0.00123288
END period  41

BEGIN period  42
  recharge
    CONSTANT  8.21917808E-04
END period  42

BEGIN period  43
  recharge
    CONSTANT  5.47945205E-04
END period  43

BEGIN period  44
  recharge
    CONSTANT       0.00109589
END period  44

BEGIN period  45
  recharge
    CONSTANT       0.00164384
END period  45

BEGIN period  46
  recharge
    CONSTANT       0.00219178
END period  46

BEGIN period  47
  recharge
    CONSTANT       0.00246575
END period  47

BEGIN period  48
  recharge
    CONSTANT       0.00273973
END period  48

BEGIN period  49
  recharge
    CONSTANT       0.00273973
END period  49

BEGIN period  50
  recharge
    CONSTANT       0.00328767
END period  50

BEGIN period  51
  recharge
    CONSTANT       0.00246575
END period  51

BEGIN period  52
  recharge
    CONSTANT       0.00164384
END period  52

BEGIN period  53
  recharge
    CONSTANT       0.00123288
END period  53

BEGIN period  54
  recharge
    CONSTANT  8.21917808E-04
END period  54

BEGIN period  55
  recharge
    CONSTANT  5.47945205E-04
END period  55

BEGIN period  56
  recharge
    CONSTANT       0.00109589
END period  56

BEGIN period  57
  recharge
    CONSTANT       0.00164384
END period  57

BEGIN period  58
  recharge
    CONSTANT       0.00219178
END period  58

BEGIN period  59
  recharge
    CONSTANT       0.00246575
END period  59

BEGIN period  60
  recharge
    CONSTANT       0.00273973
END period  60

