BEGIN options
  BUDGET  FILEOUT  test_trans.cbb
  HEAD  FILEOUT  test_trans.hds
END options

BEGIN period  1
  SAVE  HEAD  ALL
  SAVE  BUDGET  ALL
  PRINT  BUDGET  ALL
END period  1

