BEGIN options
END options

BEGIN dimensions
  MAXBOUND  30
END dimensions

BEGIN period  1
  1 1 30      25.09567472
  1 2 30      25.09567472
  1 3 30      25.09567472
  1 4 30      25.09567472
  1 5 30      25.09567472
  1 6 30      25.09567472
  1 7 30      25.09567472
  1 8 30      25.09567472
  1 9 30      25.09567472
  1 10 30      25.09567472
  1 11 30      25.09567472
  1 12 30      25.09567472
  1 13 30      25.09567472
  1 14 30      25.09567472
  1 15 30      25.09567472
  1 16 30      25.09567472
  1 17 30      25.09567472
  1 18 30      25.09567472
  1 19 30      25.09567472
  1 20 30      25.09567472
  1 21 30      25.09567472
  1 22 30      25.09567472
  1 23 30      25.09567472
  1 24 30      25.09567472
  1 25 30      25.09567472
  1 26 30      25.09567472
  1 27 30      25.09567472
  1 28 30      25.09567472
  1 29 30      25.09567472
  1 30 30      25.09567472
END period  1

BEGIN period  2
  1 1 30      25.12319555
  1 2 30      25.12319555
  1 3 30      25.12319555
  1 4 30      25.12319555
  1 5 30      25.12319555
  1 6 30      25.12319555
  1 7 30      25.12319555
  1 8 30      25.12319555
  1 9 30      25.12319555
  1 10 30      25.12319555
  1 11 30      25.12319555
  1 12 30      25.12319555
  1 13 30      25.12319555
  1 14 30      25.12319555
  1 15 30      25.12319555
  1 16 30      25.12319555
  1 17 30      25.12319555
  1 18 30      25.12319555
  1 19 30      25.12319555
  1 20 30      25.12319555
  1 21 30      25.12319555
  1 22 30      25.12319555
  1 23 30      25.12319555
  1 24 30      25.12319555
  1 25 30      25.12319555
  1 26 30      25.12319555
  1 27 30      25.12319555
  1 28 30      25.12319555
  1 29 30      25.12319555
  1 30 30      25.12319555
END period  2

BEGIN period  3
  1 1 30      25.23465924
  1 2 30      25.23465924
  1 3 30      25.23465924
  1 4 30      25.23465924
  1 5 30      25.23465924
  1 6 30      25.23465924
  1 7 30      25.23465924
  1 8 30      25.23465924
  1 9 30      25.23465924
  1 10 30      25.23465924
  1 11 30      25.23465924
  1 12 30      25.23465924
  1 13 30      25.23465924
  1 14 30      25.23465924
  1 15 30      25.23465924
  1 16 30      25.23465924
  1 17 30      25.23465924
  1 18 30      25.23465924
  1 19 30      25.23465924
  1 20 30      25.23465924
  1 21 30      25.23465924
  1 22 30      25.23465924
  1 23 30      25.23465924
  1 24 30      25.23465924
  1 25 30      25.23465924
  1 26 30      25.23465924
  1 27 30      25.23465924
  1 28 30      25.23465924
  1 29 30      25.23465924
  1 30 30      25.23465924
END period  3

BEGIN period  4
  1 1 30      25.34141683
  1 2 30      25.34141683
  1 3 30      25.34141683
  1 4 30      25.34141683
  1 5 30      25.34141683
  1 6 30      25.34141683
  1 7 30      25.34141683
  1 8 30      25.34141683
  1 9 30      25.34141683
  1 10 30      25.34141683
  1 11 30      25.34141683
  1 12 30      25.34141683
  1 13 30      25.34141683
  1 14 30      25.34141683
  1 15 30      25.34141683
  1 16 30      25.34141683
  1 17 30      25.34141683
  1 18 30      25.34141683
  1 19 30      25.34141683
  1 20 30      25.34141683
  1 21 30      25.34141683
  1 22 30      25.34141683
  1 23 30      25.34141683
  1 24 30      25.34141683
  1 25 30      25.34141683
  1 26 30      25.34141683
  1 27 30      25.34141683
  1 28 30      25.34141683
  1 29 30      25.34141683
  1 30 30      25.34141683
END period  4

BEGIN period  5
  1 1 30      25.81488910
  1 2 30      25.81488910
  1 3 30      25.81488910
  1 4 30      25.81488910
  1 5 30      25.81488910
  1 6 30      25.81488910
  1 7 30      25.81488910
  1 8 30      25.81488910
  1 9 30      25.81488910
  1 10 30      25.81488910
  1 11 30      25.81488910
  1 12 30      25.81488910
  1 13 30      25.81488910
  1 14 30      25.81488910
  1 15 30      25.81488910
  1 16 30      25.81488910
  1 17 30      25.81488910
  1 18 30      25.81488910
  1 19 30      25.81488910
  1 20 30      25.81488910
  1 21 30      25.81488910
  1 22 30      25.81488910
  1 23 30      25.81488910
  1 24 30      25.81488910
  1 25 30      25.81488910
  1 26 30      25.81488910
  1 27 30      25.81488910
  1 28 30      25.81488910
  1 29 30      25.81488910
  1 30 30      25.81488910
END period  5

BEGIN period  6
  1 1 30      25.86777728
  1 2 30      25.86777728
  1 3 30      25.86777728
  1 4 30      25.86777728
  1 5 30      25.86777728
  1 6 30      25.86777728
  1 7 30      25.86777728
  1 8 30      25.86777728
  1 9 30      25.86777728
  1 10 30      25.86777728
  1 11 30      25.86777728
  1 12 30      25.86777728
  1 13 30      25.86777728
  1 14 30      25.86777728
  1 15 30      25.86777728
  1 16 30      25.86777728
  1 17 30      25.86777728
  1 18 30      25.86777728
  1 19 30      25.86777728
  1 20 30      25.86777728
  1 21 30      25.86777728
  1 22 30      25.86777728
  1 23 30      25.86777728
  1 24 30      25.86777728
  1 25 30      25.86777728
  1 26 30      25.86777728
  1 27 30      25.86777728
  1 28 30      25.86777728
  1 29 30      25.86777728
  1 30 30      25.86777728
END period  6

BEGIN period  7
  1 1 30      25.26855920
  1 2 30      25.26855920
  1 3 30      25.26855920
  1 4 30      25.26855920
  1 5 30      25.26855920
  1 6 30      25.26855920
  1 7 30      25.26855920
  1 8 30      25.26855920
  1 9 30      25.26855920
  1 10 30      25.26855920
  1 11 30      25.26855920
  1 12 30      25.26855920
  1 13 30      25.26855920
  1 14 30      25.26855920
  1 15 30      25.26855920
  1 16 30      25.26855920
  1 17 30      25.26855920
  1 18 30      25.26855920
  1 19 30      25.26855920
  1 20 30      25.26855920
  1 21 30      25.26855920
  1 22 30      25.26855920
  1 23 30      25.26855920
  1 24 30      25.26855920
  1 25 30      25.26855920
  1 26 30      25.26855920
  1 27 30      25.26855920
  1 28 30      25.26855920
  1 29 30      25.26855920
  1 30 30      25.26855920
END period  7

BEGIN period  8
  1 1 30      25.23421278
  1 2 30      25.23421278
  1 3 30      25.23421278
  1 4 30      25.23421278
  1 5 30      25.23421278
  1 6 30      25.23421278
  1 7 30      25.23421278
  1 8 30      25.23421278
  1 9 30      25.23421278
  1 10 30      25.23421278
  1 11 30      25.23421278
  1 12 30      25.23421278
  1 13 30      25.23421278
  1 14 30      25.23421278
  1 15 30      25.23421278
  1 16 30      25.23421278
  1 17 30      25.23421278
  1 18 30      25.23421278
  1 19 30      25.23421278
  1 20 30      25.23421278
  1 21 30      25.23421278
  1 22 30      25.23421278
  1 23 30      25.23421278
  1 24 30      25.23421278
  1 25 30      25.23421278
  1 26 30      25.23421278
  1 27 30      25.23421278
  1 28 30      25.23421278
  1 29 30      25.23421278
  1 30 30      25.23421278
END period  8

BEGIN period  9
  1 1 30      25.14862554
  1 2 30      25.14862554
  1 3 30      25.14862554
  1 4 30      25.14862554
  1 5 30      25.14862554
  1 6 30      25.14862554
  1 7 30      25.14862554
  1 8 30      25.14862554
  1 9 30      25.14862554
  1 10 30      25.14862554
  1 11 30      25.14862554
  1 12 30      25.14862554
  1 13 30      25.14862554
  1 14 30      25.14862554
  1 15 30      25.14862554
  1 16 30      25.14862554
  1 17 30      25.14862554
  1 18 30      25.14862554
  1 19 30      25.14862554
  1 20 30      25.14862554
  1 21 30      25.14862554
  1 22 30      25.14862554
  1 23 30      25.14862554
  1 24 30      25.14862554
  1 25 30      25.14862554
  1 26 30      25.14862554
  1 27 30      25.14862554
  1 28 30      25.14862554
  1 29 30      25.14862554
  1 30 30      25.14862554
END period  9

BEGIN period  10
  1 1 30      25.06008533
  1 2 30      25.06008533
  1 3 30      25.06008533
  1 4 30      25.06008533
  1 5 30      25.06008533
  1 6 30      25.06008533
  1 7 30      25.06008533
  1 8 30      25.06008533
  1 9 30      25.06008533
  1 10 30      25.06008533
  1 11 30      25.06008533
  1 12 30      25.06008533
  1 13 30      25.06008533
  1 14 30      25.06008533
  1 15 30      25.06008533
  1 16 30      25.06008533
  1 17 30      25.06008533
  1 18 30      25.06008533
  1 19 30      25.06008533
  1 20 30      25.06008533
  1 21 30      25.06008533
  1 22 30      25.06008533
  1 23 30      25.06008533
  1 24 30      25.06008533
  1 25 30      25.06008533
  1 26 30      25.06008533
  1 27 30      25.06008533
  1 28 30      25.06008533
  1 29 30      25.06008533
  1 30 30      25.06008533
END period  10

BEGIN period  11
  1 1 30      24.36232934
  1 2 30      24.36232934
  1 3 30      24.36232934
  1 4 30      24.36232934
  1 5 30      24.36232934
  1 6 30      24.36232934
  1 7 30      24.36232934
  1 8 30      24.36232934
  1 9 30      24.36232934
  1 10 30      24.36232934
  1 11 30      24.36232934
  1 12 30      24.36232934
  1 13 30      24.36232934
  1 14 30      24.36232934
  1 15 30      24.36232934
  1 16 30      24.36232934
  1 17 30      24.36232934
  1 18 30      24.36232934
  1 19 30      24.36232934
  1 20 30      24.36232934
  1 21 30      24.36232934
  1 22 30      24.36232934
  1 23 30      24.36232934
  1 24 30      24.36232934
  1 25 30      24.36232934
  1 26 30      24.36232934
  1 27 30      24.36232934
  1 28 30      24.36232934
  1 29 30      24.36232934
  1 30 30      24.36232934
END period  11

BEGIN period  12
  1 1 30      24.33701220
  1 2 30      24.33701220
  1 3 30      24.33701220
  1 4 30      24.33701220
  1 5 30      24.33701220
  1 6 30      24.33701220
  1 7 30      24.33701220
  1 8 30      24.33701220
  1 9 30      24.33701220
  1 10 30      24.33701220
  1 11 30      24.33701220
  1 12 30      24.33701220
  1 13 30      24.33701220
  1 14 30      24.33701220
  1 15 30      24.33701220
  1 16 30      24.33701220
  1 17 30      24.33701220
  1 18 30      24.33701220
  1 19 30      24.33701220
  1 20 30      24.33701220
  1 21 30      24.33701220
  1 22 30      24.33701220
  1 23 30      24.33701220
  1 24 30      24.33701220
  1 25 30      24.33701220
  1 26 30      24.33701220
  1 27 30      24.33701220
  1 28 30      24.33701220
  1 29 30      24.33701220
  1 30 30      24.33701220
END period  12

BEGIN period  13
  1 1 30      25.09567472
  1 2 30      25.09567472
  1 3 30      25.09567472
  1 4 30      25.09567472
  1 5 30      25.09567472
  1 6 30      25.09567472
  1 7 30      25.09567472
  1 8 30      25.09567472
  1 9 30      25.09567472
  1 10 30      25.09567472
  1 11 30      25.09567472
  1 12 30      25.09567472
  1 13 30      25.09567472
  1 14 30      25.09567472
  1 15 30      25.09567472
  1 16 30      25.09567472
  1 17 30      25.09567472
  1 18 30      25.09567472
  1 19 30      25.09567472
  1 20 30      25.09567472
  1 21 30      25.09567472
  1 22 30      25.09567472
  1 23 30      25.09567472
  1 24 30      25.09567472
  1 25 30      25.09567472
  1 26 30      25.09567472
  1 27 30      25.09567472
  1 28 30      25.09567472
  1 29 30      25.09567472
  1 30 30      25.09567472
END period  13

BEGIN period  14
  1 1 30      25.12319555
  1 2 30      25.12319555
  1 3 30      25.12319555
  1 4 30      25.12319555
  1 5 30      25.12319555
  1 6 30      25.12319555
  1 7 30      25.12319555
  1 8 30      25.12319555
  1 9 30      25.12319555
  1 10 30      25.12319555
  1 11 30      25.12319555
  1 12 30      25.12319555
  1 13 30      25.12319555
  1 14 30      25.12319555
  1 15 30      25.12319555
  1 16 30      25.12319555
  1 17 30      25.12319555
  1 18 30      25.12319555
  1 19 30      25.12319555
  1 20 30      25.12319555
  1 21 30      25.12319555
  1 22 30      25.12319555
  1 23 30      25.12319555
  1 24 30      25.12319555
  1 25 30      25.12319555
  1 26 30      25.12319555
  1 27 30      25.12319555
  1 28 30      25.12319555
  1 29 30      25.12319555
  1 30 30      25.12319555
END period  14

BEGIN period  15
  1 1 30      25.23465924
  1 2 30      25.23465924
  1 3 30      25.23465924
  1 4 30      25.23465924
  1 5 30      25.23465924
  1 6 30      25.23465924
  1 7 30      25.23465924
  1 8 30      25.23465924
  1 9 30      25.23465924
  1 10 30      25.23465924
  1 11 30      25.23465924
  1 12 30      25.23465924
  1 13 30      25.23465924
  1 14 30      25.23465924
  1 15 30      25.23465924
  1 16 30      25.23465924
  1 17 30      25.23465924
  1 18 30      25.23465924
  1 19 30      25.23465924
  1 20 30      25.23465924
  1 21 30      25.23465924
  1 22 30      25.23465924
  1 23 30      25.23465924
  1 24 30      25.23465924
  1 25 30      25.23465924
  1 26 30      25.23465924
  1 27 30      25.23465924
  1 28 30      25.23465924
  1 29 30      25.23465924
  1 30 30      25.23465924
END period  15

BEGIN period  16
  1 1 30      25.34141683
  1 2 30      25.34141683
  1 3 30      25.34141683
  1 4 30      25.34141683
  1 5 30      25.34141683
  1 6 30      25.34141683
  1 7 30      25.34141683
  1 8 30      25.34141683
  1 9 30      25.34141683
  1 10 30      25.34141683
  1 11 30      25.34141683
  1 12 30      25.34141683
  1 13 30      25.34141683
  1 14 30      25.34141683
  1 15 30      25.34141683
  1 16 30      25.34141683
  1 17 30      25.34141683
  1 18 30      25.34141683
  1 19 30      25.34141683
  1 20 30      25.34141683
  1 21 30      25.34141683
  1 22 30      25.34141683
  1 23 30      25.34141683
  1 24 30      25.34141683
  1 25 30      25.34141683
  1 26 30      25.34141683
  1 27 30      25.34141683
  1 28 30      25.34141683
  1 29 30      25.34141683
  1 30 30      25.34141683
END period  16

BEGIN period  17
  1 1 30      25.81488910
  1 2 30      25.81488910
  1 3 30      25.81488910
  1 4 30      25.81488910
  1 5 30      25.81488910
  1 6 30      25.81488910
  1 7 30      25.81488910
  1 8 30      25.81488910
  1 9 30      25.81488910
  1 10 30      25.81488910
  1 11 30      25.81488910
  1 12 30      25.81488910
  1 13 30      25.81488910
  1 14 30      25.81488910
  1 15 30      25.81488910
  1 16 30      25.81488910
  1 17 30      25.81488910
  1 18 30      25.81488910
  1 19 30      25.81488910
  1 20 30      25.81488910
  1 21 30      25.81488910
  1 22 30      25.81488910
  1 23 30      25.81488910
  1 24 30      25.81488910
  1 25 30      25.81488910
  1 26 30      25.81488910
  1 27 30      25.81488910
  1 28 30      25.81488910
  1 29 30      25.81488910
  1 30 30      25.81488910
END period  17

BEGIN period  18
  1 1 30      25.86777728
  1 2 30      25.86777728
  1 3 30      25.86777728
  1 4 30      25.86777728
  1 5 30      25.86777728
  1 6 30      25.86777728
  1 7 30      25.86777728
  1 8 30      25.86777728
  1 9 30      25.86777728
  1 10 30      25.86777728
  1 11 30      25.86777728
  1 12 30      25.86777728
  1 13 30      25.86777728
  1 14 30      25.86777728
  1 15 30      25.86777728
  1 16 30      25.86777728
  1 17 30      25.86777728
  1 18 30      25.86777728
  1 19 30      25.86777728
  1 20 30      25.86777728
  1 21 30      25.86777728
  1 22 30      25.86777728
  1 23 30      25.86777728
  1 24 30      25.86777728
  1 25 30      25.86777728
  1 26 30      25.86777728
  1 27 30      25.86777728
  1 28 30      25.86777728
  1 29 30      25.86777728
  1 30 30      25.86777728
END period  18

BEGIN period  19
  1 1 30      25.26855920
  1 2 30      25.26855920
  1 3 30      25.26855920
  1 4 30      25.26855920
  1 5 30      25.26855920
  1 6 30      25.26855920
  1 7 30      25.26855920
  1 8 30      25.26855920
  1 9 30      25.26855920
  1 10 30      25.26855920
  1 11 30      25.26855920
  1 12 30      25.26855920
  1 13 30      25.26855920
  1 14 30      25.26855920
  1 15 30      25.26855920
  1 16 30      25.26855920
  1 17 30      25.26855920
  1 18 30      25.26855920
  1 19 30      25.26855920
  1 20 30      25.26855920
  1 21 30      25.26855920
  1 22 30      25.26855920
  1 23 30      25.26855920
  1 24 30      25.26855920
  1 25 30      25.26855920
  1 26 30      25.26855920
  1 27 30      25.26855920
  1 28 30      25.26855920
  1 29 30      25.26855920
  1 30 30      25.26855920
END period  19

BEGIN period  20
  1 1 30      25.23421278
  1 2 30      25.23421278
  1 3 30      25.23421278
  1 4 30      25.23421278
  1 5 30      25.23421278
  1 6 30      25.23421278
  1 7 30      25.23421278
  1 8 30      25.23421278
  1 9 30      25.23421278
  1 10 30      25.23421278
  1 11 30      25.23421278
  1 12 30      25.23421278
  1 13 30      25.23421278
  1 14 30      25.23421278
  1 15 30      25.23421278
  1 16 30      25.23421278
  1 17 30      25.23421278
  1 18 30      25.23421278
  1 19 30      25.23421278
  1 20 30      25.23421278
  1 21 30      25.23421278
  1 22 30      25.23421278
  1 23 30      25.23421278
  1 24 30      25.23421278
  1 25 30      25.23421278
  1 26 30      25.23421278
  1 27 30      25.23421278
  1 28 30      25.23421278
  1 29 30      25.23421278
  1 30 30      25.23421278
END period  20

BEGIN period  21
  1 1 30      25.14862554
  1 2 30      25.14862554
  1 3 30      25.14862554
  1 4 30      25.14862554
  1 5 30      25.14862554
  1 6 30      25.14862554
  1 7 30      25.14862554
  1 8 30      25.14862554
  1 9 30      25.14862554
  1 10 30      25.14862554
  1 11 30      25.14862554
  1 12 30      25.14862554
  1 13 30      25.14862554
  1 14 30      25.14862554
  1 15 30      25.14862554
  1 16 30      25.14862554
  1 17 30      25.14862554
  1 18 30      25.14862554
  1 19 30      25.14862554
  1 20 30      25.14862554
  1 21 30      25.14862554
  1 22 30      25.14862554
  1 23 30      25.14862554
  1 24 30      25.14862554
  1 25 30      25.14862554
  1 26 30      25.14862554
  1 27 30      25.14862554
  1 28 30      25.14862554
  1 29 30      25.14862554
  1 30 30      25.14862554
END period  21

BEGIN period  22
  1 1 30      25.06008533
  1 2 30      25.06008533
  1 3 30      25.06008533
  1 4 30      25.06008533
  1 5 30      25.06008533
  1 6 30      25.06008533
  1 7 30      25.06008533
  1 8 30      25.06008533
  1 9 30      25.06008533
  1 10 30      25.06008533
  1 11 30      25.06008533
  1 12 30      25.06008533
  1 13 30      25.06008533
  1 14 30      25.06008533
  1 15 30      25.06008533
  1 16 30      25.06008533
  1 17 30      25.06008533
  1 18 30      25.06008533
  1 19 30      25.06008533
  1 20 30      25.06008533
  1 21 30      25.06008533
  1 22 30      25.06008533
  1 23 30      25.06008533
  1 24 30      25.06008533
  1 25 30      25.06008533
  1 26 30      25.06008533
  1 27 30      25.06008533
  1 28 30      25.06008533
  1 29 30      25.06008533
  1 30 30      25.06008533
END period  22

BEGIN period  23
  1 1 30      24.36232934
  1 2 30      24.36232934
  1 3 30      24.36232934
  1 4 30      24.36232934
  1 5 30      24.36232934
  1 6 30      24.36232934
  1 7 30      24.36232934
  1 8 30      24.36232934
  1 9 30      24.36232934
  1 10 30      24.36232934
  1 11 30      24.36232934
  1 12 30      24.36232934
  1 13 30      24.36232934
  1 14 30      24.36232934
  1 15 30      24.36232934
  1 16 30      24.36232934
  1 17 30      24.36232934
  1 18 30      24.36232934
  1 19 30      24.36232934
  1 20 30      24.36232934
  1 21 30      24.36232934
  1 22 30      24.36232934
  1 23 30      24.36232934
  1 24 30      24.36232934
  1 25 30      24.36232934
  1 26 30      24.36232934
  1 27 30      24.36232934
  1 28 30      24.36232934
  1 29 30      24.36232934
  1 30 30      24.36232934
END period  23

BEGIN period  24
  1 1 30      24.33701220
  1 2 30      24.33701220
  1 3 30      24.33701220
  1 4 30      24.33701220
  1 5 30      24.33701220
  1 6 30      24.33701220
  1 7 30      24.33701220
  1 8 30      24.33701220
  1 9 30      24.33701220
  1 10 30      24.33701220
  1 11 30      24.33701220
  1 12 30      24.33701220
  1 13 30      24.33701220
  1 14 30      24.33701220
  1 15 30      24.33701220
  1 16 30      24.33701220
  1 17 30      24.33701220
  1 18 30      24.33701220
  1 19 30      24.33701220
  1 20 30      24.33701220
  1 21 30      24.33701220
  1 22 30      24.33701220
  1 23 30      24.33701220
  1 24 30      24.33701220
  1 25 30      24.33701220
  1 26 30      24.33701220
  1 27 30      24.33701220
  1 28 30      24.33701220
  1 29 30      24.33701220
  1 30 30      24.33701220
END period  24

BEGIN period  25
  1 1 30      25.09567472
  1 2 30      25.09567472
  1 3 30      25.09567472
  1 4 30      25.09567472
  1 5 30      25.09567472
  1 6 30      25.09567472
  1 7 30      25.09567472
  1 8 30      25.09567472
  1 9 30      25.09567472
  1 10 30      25.09567472
  1 11 30      25.09567472
  1 12 30      25.09567472
  1 13 30      25.09567472
  1 14 30      25.09567472
  1 15 30      25.09567472
  1 16 30      25.09567472
  1 17 30      25.09567472
  1 18 30      25.09567472
  1 19 30      25.09567472
  1 20 30      25.09567472
  1 21 30      25.09567472
  1 22 30      25.09567472
  1 23 30      25.09567472
  1 24 30      25.09567472
  1 25 30      25.09567472
  1 26 30      25.09567472
  1 27 30      25.09567472
  1 28 30      25.09567472
  1 29 30      25.09567472
  1 30 30      25.09567472
END period  25

BEGIN period  26
  1 1 30      25.12319555
  1 2 30      25.12319555
  1 3 30      25.12319555
  1 4 30      25.12319555
  1 5 30      25.12319555
  1 6 30      25.12319555
  1 7 30      25.12319555
  1 8 30      25.12319555
  1 9 30      25.12319555
  1 10 30      25.12319555
  1 11 30      25.12319555
  1 12 30      25.12319555
  1 13 30      25.12319555
  1 14 30      25.12319555
  1 15 30      25.12319555
  1 16 30      25.12319555
  1 17 30      25.12319555
  1 18 30      25.12319555
  1 19 30      25.12319555
  1 20 30      25.12319555
  1 21 30      25.12319555
  1 22 30      25.12319555
  1 23 30      25.12319555
  1 24 30      25.12319555
  1 25 30      25.12319555
  1 26 30      25.12319555
  1 27 30      25.12319555
  1 28 30      25.12319555
  1 29 30      25.12319555
  1 30 30      25.12319555
END period  26

BEGIN period  27
  1 1 30      25.23465924
  1 2 30      25.23465924
  1 3 30      25.23465924
  1 4 30      25.23465924
  1 5 30      25.23465924
  1 6 30      25.23465924
  1 7 30      25.23465924
  1 8 30      25.23465924
  1 9 30      25.23465924
  1 10 30      25.23465924
  1 11 30      25.23465924
  1 12 30      25.23465924
  1 13 30      25.23465924
  1 14 30      25.23465924
  1 15 30      25.23465924
  1 16 30      25.23465924
  1 17 30      25.23465924
  1 18 30      25.23465924
  1 19 30      25.23465924
  1 20 30      25.23465924
  1 21 30      25.23465924
  1 22 30      25.23465924
  1 23 30      25.23465924
  1 24 30      25.23465924
  1 25 30      25.23465924
  1 26 30      25.23465924
  1 27 30      25.23465924
  1 28 30      25.23465924
  1 29 30      25.23465924
  1 30 30      25.23465924
END period  27

BEGIN period  28
  1 1 30      25.34141683
  1 2 30      25.34141683
  1 3 30      25.34141683
  1 4 30      25.34141683
  1 5 30      25.34141683
  1 6 30      25.34141683
  1 7 30      25.34141683
  1 8 30      25.34141683
  1 9 30      25.34141683
  1 10 30      25.34141683
  1 11 30      25.34141683
  1 12 30      25.34141683
  1 13 30      25.34141683
  1 14 30      25.34141683
  1 15 30      25.34141683
  1 16 30      25.34141683
  1 17 30      25.34141683
  1 18 30      25.34141683
  1 19 30      25.34141683
  1 20 30      25.34141683
  1 21 30      25.34141683
  1 22 30      25.34141683
  1 23 30      25.34141683
  1 24 30      25.34141683
  1 25 30      25.34141683
  1 26 30      25.34141683
  1 27 30      25.34141683
  1 28 30      25.34141683
  1 29 30      25.34141683
  1 30 30      25.34141683
END period  28

BEGIN period  29
  1 1 30      25.81488910
  1 2 30      25.81488910
  1 3 30      25.81488910
  1 4 30      25.81488910
  1 5 30      25.81488910
  1 6 30      25.81488910
  1 7 30      25.81488910
  1 8 30      25.81488910
  1 9 30      25.81488910
  1 10 30      25.81488910
  1 11 30      25.81488910
  1 12 30      25.81488910
  1 13 30      25.81488910
  1 14 30      25.81488910
  1 15 30      25.81488910
  1 16 30      25.81488910
  1 17 30      25.81488910
  1 18 30      25.81488910
  1 19 30      25.81488910
  1 20 30      25.81488910
  1 21 30      25.81488910
  1 22 30      25.81488910
  1 23 30      25.81488910
  1 24 30      25.81488910
  1 25 30      25.81488910
  1 26 30      25.81488910
  1 27 30      25.81488910
  1 28 30      25.81488910
  1 29 30      25.81488910
  1 30 30      25.81488910
END period  29

BEGIN period  30
  1 1 30      25.86777728
  1 2 30      25.86777728
  1 3 30      25.86777728
  1 4 30      25.86777728
  1 5 30      25.86777728
  1 6 30      25.86777728
  1 7 30      25.86777728
  1 8 30      25.86777728
  1 9 30      25.86777728
  1 10 30      25.86777728
  1 11 30      25.86777728
  1 12 30      25.86777728
  1 13 30      25.86777728
  1 14 30      25.86777728
  1 15 30      25.86777728
  1 16 30      25.86777728
  1 17 30      25.86777728
  1 18 30      25.86777728
  1 19 30      25.86777728
  1 20 30      25.86777728
  1 21 30      25.86777728
  1 22 30      25.86777728
  1 23 30      25.86777728
  1 24 30      25.86777728
  1 25 30      25.86777728
  1 26 30      25.86777728
  1 27 30      25.86777728
  1 28 30      25.86777728
  1 29 30      25.86777728
  1 30 30      25.86777728
END period  30

BEGIN period  31
  1 1 30      25.26855920
  1 2 30      25.26855920
  1 3 30      25.26855920
  1 4 30      25.26855920
  1 5 30      25.26855920
  1 6 30      25.26855920
  1 7 30      25.26855920
  1 8 30      25.26855920
  1 9 30      25.26855920
  1 10 30      25.26855920
  1 11 30      25.26855920
  1 12 30      25.26855920
  1 13 30      25.26855920
  1 14 30      25.26855920
  1 15 30      25.26855920
  1 16 30      25.26855920
  1 17 30      25.26855920
  1 18 30      25.26855920
  1 19 30      25.26855920
  1 20 30      25.26855920
  1 21 30      25.26855920
  1 22 30      25.26855920
  1 23 30      25.26855920
  1 24 30      25.26855920
  1 25 30      25.26855920
  1 26 30      25.26855920
  1 27 30      25.26855920
  1 28 30      25.26855920
  1 29 30      25.26855920
  1 30 30      25.26855920
END period  31

BEGIN period  32
  1 1 30      25.23421278
  1 2 30      25.23421278
  1 3 30      25.23421278
  1 4 30      25.23421278
  1 5 30      25.23421278
  1 6 30      25.23421278
  1 7 30      25.23421278
  1 8 30      25.23421278
  1 9 30      25.23421278
  1 10 30      25.23421278
  1 11 30      25.23421278
  1 12 30      25.23421278
  1 13 30      25.23421278
  1 14 30      25.23421278
  1 15 30      25.23421278
  1 16 30      25.23421278
  1 17 30      25.23421278
  1 18 30      25.23421278
  1 19 30      25.23421278
  1 20 30      25.23421278
  1 21 30      25.23421278
  1 22 30      25.23421278
  1 23 30      25.23421278
  1 24 30      25.23421278
  1 25 30      25.23421278
  1 26 30      25.23421278
  1 27 30      25.23421278
  1 28 30      25.23421278
  1 29 30      25.23421278
  1 30 30      25.23421278
END period  32

BEGIN period  33
  1 1 30      25.14862554
  1 2 30      25.14862554
  1 3 30      25.14862554
  1 4 30      25.14862554
  1 5 30      25.14862554
  1 6 30      25.14862554
  1 7 30      25.14862554
  1 8 30      25.14862554
  1 9 30      25.14862554
  1 10 30      25.14862554
  1 11 30      25.14862554
  1 12 30      25.14862554
  1 13 30      25.14862554
  1 14 30      25.14862554
  1 15 30      25.14862554
  1 16 30      25.14862554
  1 17 30      25.14862554
  1 18 30      25.14862554
  1 19 30      25.14862554
  1 20 30      25.14862554
  1 21 30      25.14862554
  1 22 30      25.14862554
  1 23 30      25.14862554
  1 24 30      25.14862554
  1 25 30      25.14862554
  1 26 30      25.14862554
  1 27 30      25.14862554
  1 28 30      25.14862554
  1 29 30      25.14862554
  1 30 30      25.14862554
END period  33

BEGIN period  34
  1 1 30      25.06008533
  1 2 30      25.06008533
  1 3 30      25.06008533
  1 4 30      25.06008533
  1 5 30      25.06008533
  1 6 30      25.06008533
  1 7 30      25.06008533
  1 8 30      25.06008533
  1 9 30      25.06008533
  1 10 30      25.06008533
  1 11 30      25.06008533
  1 12 30      25.06008533
  1 13 30      25.06008533
  1 14 30      25.06008533
  1 15 30      25.06008533
  1 16 30      25.06008533
  1 17 30      25.06008533
  1 18 30      25.06008533
  1 19 30      25.06008533
  1 20 30      25.06008533
  1 21 30      25.06008533
  1 22 30      25.06008533
  1 23 30      25.06008533
  1 24 30      25.06008533
  1 25 30      25.06008533
  1 26 30      25.06008533
  1 27 30      25.06008533
  1 28 30      25.06008533
  1 29 30      25.06008533
  1 30 30      25.06008533
END period  34

BEGIN period  35
  1 1 30      24.36232934
  1 2 30      24.36232934
  1 3 30      24.36232934
  1 4 30      24.36232934
  1 5 30      24.36232934
  1 6 30      24.36232934
  1 7 30      24.36232934
  1 8 30      24.36232934
  1 9 30      24.36232934
  1 10 30      24.36232934
  1 11 30      24.36232934
  1 12 30      24.36232934
  1 13 30      24.36232934
  1 14 30      24.36232934
  1 15 30      24.36232934
  1 16 30      24.36232934
  1 17 30      24.36232934
  1 18 30      24.36232934
  1 19 30      24.36232934
  1 20 30      24.36232934
  1 21 30      24.36232934
  1 22 30      24.36232934
  1 23 30      24.36232934
  1 24 30      24.36232934
  1 25 30      24.36232934
  1 26 30      24.36232934
  1 27 30      24.36232934
  1 28 30      24.36232934
  1 29 30      24.36232934
  1 30 30      24.36232934
END period  35

BEGIN period  36
  1 1 30      24.33701220
  1 2 30      24.33701220
  1 3 30      24.33701220
  1 4 30      24.33701220
  1 5 30      24.33701220
  1 6 30      24.33701220
  1 7 30      24.33701220
  1 8 30      24.33701220
  1 9 30      24.33701220
  1 10 30      24.33701220
  1 11 30      24.33701220
  1 12 30      24.33701220
  1 13 30      24.33701220
  1 14 30      24.33701220
  1 15 30      24.33701220
  1 16 30      24.33701220
  1 17 30      24.33701220
  1 18 30      24.33701220
  1 19 30      24.33701220
  1 20 30      24.33701220
  1 21 30      24.33701220
  1 22 30      24.33701220
  1 23 30      24.33701220
  1 24 30      24.33701220
  1 25 30      24.33701220
  1 26 30      24.33701220
  1 27 30      24.33701220