BEGIN griddata
  strt
    CONSTANT      25.00000000
END griddata

