BEGIN options
END options

BEGIN dimensions
  MAXBOUND  30
END dimensions

BEGIN period  1
  1 1 30      24.32290075
  1 2 30      24.32290075
  1 3 30      24.32290075
  1 4 30      24.32290075
  1 5 30      24.32290075
  1 6 30      24.32290075
  1 7 30      24.32290075
  1 8 30      24.32290075
  1 9 30      24.32290075
  1 10 30      24.32290075
  1 11 30      24.32290075
  1 12 30      24.32290075
  1 13 30      24.32290075
  1 14 30      24.32290075
  1 15 30      24.32290075
  1 16 30      24.32290075
  1 17 30      24.32290075
  1 18 30      24.32290075
  1 19 30      24.32290075
  1 20 30      24.32290075
  1 21 30      24.32290075
  1 22 30      24.32290075
  1 23 30      24.32290075
  1 24 30      24.32290075
  1 25 30      24.32290075
  1 26 30      24.32290075
  1 27 30      24.32290075
  1 28 30      24.32290075
  1 29 30      24.32290075
  1 30 30      24.32290075
END period  1

BEGIN period  2
  1 1 30      24.48955380
  1 2 30      24.48955380
  1 3 30      24.48955380
  1 4 30      24.48955380
  1 5 30      24.48955380
  1 6 30      24.48955380
  1 7 30      24.48955380
  1 8 30      24.48955380
  1 9 30      24.48955380
  1 10 30      24.48955380
  1 11 30      24.48955380
  1 12 30      24.48955380
  1 13 30      24.48955380
  1 14 30      24.48955380
  1 15 30      24.48955380
  1 16 30      24.48955380
  1 17 30      24.48955380
  1 18 30      24.48955380
  1 19 30      24.48955380
  1 20 30      24.48955380
  1 21 30      24.48955380
  1 22 30      24.48955380
  1 23 30      24.48955380
  1 24 30      24.48955380
  1 25 30      24.48955380
  1 26 30      24.48955380
  1 27 30      24.48955380
  1 28 30      24.48955380
  1 29 30      24.48955380
  1 30 30      24.48955380
END period  2

BEGIN period  3
  1 1 30      24.93298029
  1 2 30      24.93298029
  1 3 30      24.93298029
  1 4 30      24.93298029
  1 5 30      24.93298029
  1 6 30      24.93298029
  1 7 30      24.93298029
  1 8 30      24.93298029
  1 9 30      24.93298029
  1 10 30      24.93298029
  1 11 30      24.93298029
  1 12 30      24.93298029
  1 13 30      24.93298029
  1 14 30      24.93298029
  1 15 30      24.93298029
  1 16 30      24.93298029
  1 17 30      24.93298029
  1 18 30      24.93298029
  1 19 30      24.93298029
  1 20 30      24.93298029
  1 21 30      24.93298029
  1 22 30      24.93298029
  1 23 30      24.93298029
  1 24 30      24.93298029
  1 25 30      24.93298029
  1 26 30      24.93298029
  1 27 30      24.93298029
  1 28 30      24.93298029
  1 29 30      24.93298029
  1 30 30      24.93298029
END period  3

BEGIN period  4
  1 1 30      25.04598120
  1 2 30      25.04598120
  1 3 30      25.04598120
  1 4 30      25.04598120
  1 5 30      25.04598120
  1 6 30      25.04598120
  1 7 30      25.04598120
  1 8 30      25.04598120
  1 9 30      25.04598120
  1 10 30      25.04598120
  1 11 30      25.04598120
  1 12 30      25.04598120
  1 13 30      25.04598120
  1 14 30      25.04598120
  1 15 30      25.04598120
  1 16 30      25.04598120
  1 17 30      25.04598120
  1 18 30      25.04598120
  1 19 30      25.04598120
  1 20 30      25.04598120
  1 21 30      25.04598120
  1 22 30      25.04598120
  1 23 30      25.04598120
  1 24 30      25.04598120
  1 25 30      25.04598120
  1 26 30      25.04598120
  1 27 30      25.04598120
  1 28 30      25.04598120
  1 29 30      25.04598120
  1 30 30      25.04598120
END period  4

BEGIN period  5
  1 1 30      25.12686117
  1 2 30      25.12686117
  1 3 30      25.12686117
  1 4 30      25.12686117
  1 5 30      25.12686117
  1 6 30      25.12686117
  1 7 30      25.12686117
  1 8 30      25.12686117
  1 9 30      25.12686117
  1 10 30      25.12686117
  1 11 30      25.12686117
  1 12 30      25.12686117
  1 13 30      25.12686117
  1 14 30      25.12686117
  1 15 30      25.12686117
  1 16 30      25.12686117
  1 17 30      25.12686117
  1 18 30      25.12686117
  1 19 30      25.12686117
  1 20 30      25.12686117
  1 21 30      25.12686117
  1 22 30      25.12686117
  1 23 30      25.12686117
  1 24 30      25.12686117
  1 25 30      25.12686117
  1 26 30      25.12686117
  1 27 30      25.12686117
  1 28 30      25.12686117
  1 29 30      25.12686117
  1 30 30      25.12686117
END period  5

BEGIN period  6
  1 1 30      26.55736089
  1 2 30      26.55736089
  1 3 30      26.55736089
  1 4 30      26.55736089
  1 5 30      26.55736089
  1 6 30      26.55736089
  1 7 30      26.55736089
  1 8 30      26.55736089
  1 9 30      26.55736089
  1 10 30      26.55736089
  1 11 30      26.55736089
  1 12 30      26.55736089
  1 13 30      26.55736089
  1 14 30      26.55736089
  1 15 30      26.55736089
  1 16 30      26.55736089
  1 17 30      26.55736089
  1 18 30      26.55736089
  1 19 30      26.55736089
  1 20 30      26.55736089
  1 21 30      26.55736089
  1 22 30      26.55736089
  1 23 30      26.55736089
  1 24 30      26.55736089
  1 25 30      26.55736089
  1 26 30      26.55736089
  1 27 30      26.55736089
  1 28 30      26.55736089
  1 29 30      26.55736089
  1 30 30      26.55736089
END period  6

BEGIN period  7
  1 1 30      25.49481746
  1 2 30      25.49481746
  1 3 30      25.49481746
  1 4 30      25.49481746
  1 5 30      25.49481746
  1 6 30      25.49481746
  1 7 30      25.49481746
  1 8 30      25.49481746
  1 9 30      25.49481746
  1 10 30      25.49481746
  1 11 30      25.49481746
  1 12 30      25.49481746
  1 13 30      25.49481746
  1 14 30      25.49481746
  1 15 30      25.49481746
  1 16 30      25.49481746
  1 17 30      25.49481746
  1 18 30      25.49481746
  1 19 30      25.49481746
  1 20 30      25.49481746
  1 21 30      25.49481746
  1 22 30      25.49481746
  1 23 30      25.49481746
  1 24 30      25.49481746
  1 25 30      25.49481746
  1 26 30      25.49481746
  1 27 30      25.49481746
  1 28 30      25.49481746
  1 29 30      25.49481746
  1 30 30      25.49481746
END period  7

BEGIN period  8
  1 1 30      25.19990080
  1 2 30      25.19990080
  1 3 30      25.19990080
  1 4 30      25.19990080
  1 5 30      25.19990080
  1 6 30      25.19990080
  1 7 30      25.19990080
  1 8 30      25.19990080
  1 9 30      25.19990080
  1 10 30      25.19990080
  1 11 30      25.19990080
  1 12 30      25.19990080
  1 13 30      25.19990080
  1 14 30      25.19990080
  1 15 30      25.19990080
  1 16 30      25.19990080
  1 17 30      25.19990080
  1 18 30      25.19990080
  1 19 30      25.19990080
  1 20 30      25.19990080
  1 21 30      25.19990080
  1 22 30      25.19990080
  1 23 30      25.19990080
  1 24 30      25.19990080
  1 25 30      25.19990080
  1 26 30      25.19990080
  1 27 30      25.19990080
  1 28 30      25.19990080
  1 29 30      25.19990080
  1 30 30      25.19990080
END period  8

BEGIN period  9
  1 1 30      24.94322803
  1 2 30      24.94322803
  1 3 30      24.94322803
  1 4 30      24.94322803
  1 5 30      24.94322803
  1 6 30      24.94322803
  1 7 30      24.94322803
  1 8 30      24.94322803
  1 9 30      24.94322803
  1 10 30      24.94322803
  1 11 30      24.94322803
  1 12 30      24.94322803
  1 13 30      24.94322803
  1 14 30      24.94322803
  1 15 30      24.94322803
  1 16 30      24.94322803
  1 17 30      24.94322803
  1 18 30      24.94322803
  1 19 30      24.94322803
  1 20 30      24.94322803
  1 21 30      24.94322803
  1 22 30      24.94322803
  1 23 30      24.94322803
  1 24 30      24.94322803
  1 25 30      24.94322803
  1 26 30      24.94322803
  1 27 30      24.94322803
  1 28 30      24.94322803
  1 29 30      24.94322803
  1 30 30      24.94322803
END period  9

BEGIN period  10
  1 1 30      24.33527545
  1 2 30      24.33527545
  1 3 30      24.33527545
  1 4 30      24.33527545
  1 5 30      24.33527545
  1 6 30      24.33527545
  1 7 30      24.33527545
  1 8 30      24.33527545
  1 9 30      24.33527545
  1 10 30      24.33527545
  1 11 30      24.33527545
  1 12 30      24.33527545
  1 13 30      24.33527545
  1 14 30      24.33527545
  1 15 30      24.33527545
  1 16 30      24.33527545
  1 17 30      24.33527545
  1 18 30      24.33527545
  1 19 30      24.33527545
  1 20 30      24.33527545
  1 21 30      24.33527545
  1 22 30      24.33527545
  1 23 30      24.33527545
  1 24 30      24.33527545
  1 25 30      24.33527545
  1 26 30      24.33527545
  1 27 30      24.33527545
  1 28 30      24.33527545
  1 29 30      24.33527545
  1 30 30      24.33527545
END period  10

BEGIN period  11
  1 1 30      24.24298177
  1 2 30      24.24298177
  1 3 30      24.24298177
  1 4 30      24.24298177
  1 5 30      24.24298177
  1 6 30      24.24298177
  1 7 30      24.24298177
  1 8 30      24.24298177
  1 9 30      24.24298177
  1 10 30      24.24298177
  1 11 30      24.24298177
  1 12 30      24.24298177
  1 13 30      24.24298177
  1 14 30      24.24298177
  1 15 30      24.24298177
  1 16 30      24.24298177
  1 17 30      24.24298177
  1 18 30      24.24298177
  1 19 30      24.24298177
  1 20 30      24.24298177
  1 21 30      24.24298177
  1 22 30      24.24298177
  1 23 30      24.24298177
  1 24 30      24.24298177
  1 25 30      24.24298177
  1 26 30      24.24298177
  1 27 30      24.24298177
  1 28 30      24.24298177
  1 29 30      24.24298177
  1 30 30      24.24298177
END period  11

BEGIN period  12
  1 1 30      24.05825863
  1 2 30      24.05825863
  1 3 30      24.05825863
  1 4 30      24.05825863
  1 5 30      24.05825863
  1 6 30      24.05825863
  1 7 30      24.05825863
  1 8 30      24.05825863
  1 9 30      24.05825863
  1 10 30      24.05825863
  1 11 30      24.05825863
  1 12 30      24.05825863
  1 13 30      24.05825863
  1 14 30      24.05825863
  1 15 30      24.05825863
  1 16 30      24.05825863
  1 17 30      24.05825863
  1 18 30      24.05825863
  1 19 30      24.05825863
  1 20 30      24.05825863
  1 21 30      24.05825863
  1 22 30      24.05825863
  1 23 30      24.05825863
  1 24 30      24.05825863
  1 25 30      24.05825863
  1 26 30      24.05825863
  1 27 30      24.05825863
  1 28 30      24.05825863
  1 29 30      24.05825863
  1 30 30      24.05825863
END period  12

BEGIN period  13
  1 1 30      24.32290075
  1 2 30      24.32290075
  1 3 30      24.32290075
  1 4 30      24.32290075
  1 5 30      24.32290075
  1 6 30      24.32290075
  1 7 30      24.32290075
  1 8 30      24.32290075
  1 9 30      24.32290075
  1 10 30      24.32290075
  1 11 30      24.32290075
  1 12 30      24.32290075
  1 13 30      24.32290075
  1 14 30      24.32290075
  1 15 30      24.32290075
  1 16 30      24.32290075
  1 17 30      24.32290075
  1 18 30      24.32290075
  1 19 30      24.32290075
  1 20 30      24.32290075
  1 21 30      24.32290075
  1 22 30      24.32290075
  1 23 30      24.32290075
  1 24 30      24.32290075
  1 25 30      24.32290075
  1 26 30      24.32290075
  1 27 30      24.32290075
  1 28 30      24.32290075
  1 29 30      24.32290075
  1 30 30      24.32290075
END period  13

BEGIN period  14
  1 1 30      24.48955380
  1 2 30      24.48955380
  1 3 30      24.48955380
  1 4 30      24.48955380
  1 5 30      24.48955380
  1 6 30      24.48955380
  1 7 30      24.48955380
  1 8 30      24.48955380
  1 9 30      24.48955380
  1 10 30      24.48955380
  1 11 30      24.48955380
  1 12 30      24.48955380
  1 13 30      24.48955380
  1 14 30      24.48955380
  1 15 30      24.48955380
  1 16 30      24.48955380
  1 17 30      24.48955380
  1 18 30      24.48955380
  1 19 30      24.48955380
  1 20 30      24.48955380
  1 21 30      24.48955380
  1 22 30      24.48955380
  1 23 30      24.48955380
  1 24 30      24.48955380
  1 25 30      24.48955380
  1 26 30      24.48955380
  1 27 30      24.48955380
  1 28 30      24.48955380
  1 29 30      24.48955380
  1 30 30      24.48955380
END period  14

BEGIN period  15
  1 1 30      24.93298029
  1 2 30      24.93298029
  1 3 30      24.93298029
  1 4 30      24.93298029
  1 5 30      24.93298029
  1 6 30      24.93298029
  1 7 30      24.93298029
  1 8 30      24.93298029
  1 9 30      24.93298029
  1 10 30      24.93298029
  1 11 30      24.93298029
  1 12 30      24.93298029
  1 13 30      24.93298029
  1 14 30      24.93298029
  1 15 30      24.93298029
  1 16 30      24.93298029
  1 17 30      24.93298029
  1 18 30      24.93298029
  1 19 30      24.93298029
  1 20 30      24.93298029
  1 21 30      24.93298029
  1 22 30      24.93298029
  1 23 30      24.93298029
  1 24 30      24.93298029
  1 25 30      24.93298029
  1 26 30      24.93298029
  1 27 30      24.93298029
  1 28 30      24.93298029
  1 29 30      24.93298029
  1 30 30      24.93298029
END period  15

BEGIN period  16
  1 1 30      25.04598120
  1 2 30      25.04598120
  1 3 30      25.04598120
  1 4 30      25.04598120
  1 5 30      25.04598120
  1 6 30      25.04598120
  1 7 30      25.04598120
  1 8 30      25.04598120
  1 9 30      25.04598120
  1 10 30      25.04598120
  1 11 30      25.04598120
  1 12 30      25.04598120
  1 13 30      25.04598120
  1 14 30      25.04598120
  1 15 30      25.04598120
  1 16 30      25.04598120
  1 17 30      25.04598120
  1 18 30      25.04598120
  1 19 30      25.04598120
  1 20 30      25.04598120
  1 21 30      25.04598120
  1 22 30      25.04598120
  1 23 30      25.04598120
  1 24 30      25.04598120
  1 25 30      25.04598120
  1 26 30      25.04598120
  1 27 30      25.04598120
  1 28 30      25.04598120
  1 29 30      25.04598120
  1 30 30      25.04598120
END period  16

BEGIN period  17
  1 1 30      25.12686117
  1 2 30      25.12686117
  1 3 30      25.12686117
  1 4 30      25.12686117
  1 5 30      25.12686117
  1 6 30      25.12686117
  1 7 30      25.12686117
  1 8 30      25.12686117
  1 9 30      25.12686117
  1 10 30      25.12686117
  1 11 30      25.12686117
  1 12 30      25.12686117
  1 13 30      25.12686117
  1 14 30      25.12686117
  1 15 30      25.12686117
  1 16 30      25.12686117
  1 17 30      25.12686117
  1 18 30      25.12686117
  1 19 30      25.12686117
  1 20 30      25.12686117
  1 21 30      25.12686117
  1 22 30      25.12686117
  1 23 30      25.12686117
  1 24 30      25.12686117
  1 25 30      25.12686117
  1 26 30      25.12686117
  1 27 30      25.12686117
  1 28 30      25.12686117
  1 29 30      25.12686117
  1 30 30      25.12686117
END period  17

BEGIN period  18
  1 1 30      26.55736089
  1 2 30      26.55736089
  1 3 30      26.55736089
  1 4 30      26.55736089
  1 5 30      26.55736089
  1 6 30      26.55736089
  1 7 30      26.55736089
  1 8 30      26.55736089
  1 9 30      26.55736089
  1 10 30      26.55736089
  1 11 30      26.55736089
  1 12 30      26.55736089
  1 13 30      26.55736089
  1 14 30      26.55736089
  1 15 30      26.55736089
  1 16 30      26.55736089
  1 17 30      26.55736089
  1 18 30      26.55736089
  1 19 30      26.55736089
  1 20 30      26.55736089
  1 21 30      26.55736089
  1 22 30      26.55736089
  1 23 30      26.55736089
  1 24 30      26.55736089
  1 25 30      26.55736089
  1 26 30      26.55736089
  1 27 30      26.55736089
  1 28 30      26.55736089
  1 29 30      26.55736089
  1 30 30      26.55736089
END period  18

BEGIN period  19
  1 1 30      25.49481746
  1 2 30      25.49481746
  1 3 30      25.49481746
  1 4 30      25.49481746
  1 5 30      25.49481746
  1 6 30      25.49481746
  1 7 30      25.49481746
  1 8 30      25.49481746
  1 9 30      25.49481746
  1 10 30      25.49481746
  1 11 30      25.49481746
  1 12 30      25.49481746
  1 13 30      25.49481746
  1 14 30      25.49481746
  1 15 30      25.49481746
  1 16 30      25.49481746
  1 17 30      25.49481746
  1 18 30      25.49481746
  1 19 30      25.49481746
  1 20 30      25.49481746
  1 21 30      25.49481746
  1 22 30      25.49481746
  1 23 30      25.49481746
  1 24 30      25.49481746
  1 25 30      25.49481746
  1 26 30      25.49481746
  1 27 30      25.49481746
  1 28 30      25.49481746
  1 29 30      25.49481746
  1 30 30      25.49481746
END period  19

BEGIN period  20
  1 1 30      25.19990080
  1 2 30      25.19990080
  1 3 30      25.19990080
  1 4 30      25.19990080
  1 5 30      25.19990080
  1 6 30      25.19990080
  1 7 30      25.19990080
  1 8 30      25.19990080
  1 9 30      25.19990080
  1 10 30      25.19990080
  1 11 30      25.19990080
  1 12 30      25.19990080
  1 13 30      25.19990080
  1 14 30      25.19990080
  1 15 30      25.19990080
  1 16 30      25.19990080
  1 17 30      25.19990080
  1 18 30      25.19990080
  1 19 30      25.19990080
  1 20 30      25.19990080
  1 21 30      25.19990080
  1 22 30      25.19990080
  1 23 30      25.19990080
  1 24 30      25.19990080
  1 25 30      25.19990080
  1 26 30      25.19990080
  1 27 30      25.19990080
  1 28 30      25.19990080
  1 29 30      25.19990080
  1 30 30      25.19990080
END period  20

BEGIN period  21
  1 1 30      24.94322803
  1 2 30      24.94322803
  1 3 30      24.94322803
  1 4 30      24.94322803
  1 5 30      24.94322803
  1 6 30      24.94322803
  1 7 30      24.94322803
  1 8 30      24.94322803
  1 9 30      24.94322803
  1 10 30      24.94322803
  1 11 30      24.94322803
  1 12 30      24.94322803
  1 13 30      24.94322803
  1 14 30      24.94322803
  1 15 30      24.94322803
  1 16 30      24.94322803
  1 17 30      24.94322803
  1 18 30      24.94322803
  1 19 30      24.94322803
  1 20 30      24.94322803
  1 21 30      24.94322803
  1 22 30      24.94322803
  1 23 30      24.94322803
  1 24 30      24.94322803
  1 25 30      24.94322803
  1 26 30      24.94322803
  1 27 30      24.94322803
  1 28 30      24.94322803
  1 29 30      24.94322803
  1 30 30      24.94322803
END period  21

BEGIN period  22
  1 1 30      24.33527545
  1 2 30      24.33527545
  1 3 30      24.33527545
  1 4 30      24.33527545
  1 5 30      24.33527545
  1 6 30      24.33527545
  1 7 30      24.33527545
  1 8 30      24.33527545
  1 9 30      24.33527545
  1 10 30      24.33527545
  1 11 30      24.33527545
  1 12 30      24.33527545
  1 13 30      24.33527545
  1 14 30      24.33527545
  1 15 30      24.33527545
  1 16 30      24.33527545
  1 17 30      24.33527545
  1 18 30      24.33527545
  1 19 30      24.33527545
  1 20 30      24.33527545
  1 21 30      24.33527545
  1 22 30      24.33527545
  1 23 30      24.33527545
  1 24 30      24.33527545
  1 25 30      24.33527545
  1 26 30      24.33527545
  1 27 30      24.33527545
  1 28 30      24.33527545
  1 29 30      24.33527545
  1 30 30      24.33527545
END period  22

BEGIN period  23
  1 1 30      24.24298177
  1 2 30      24.24298177
  1 3 30      24.24298177
  1 4 30      24.24298177
  1 5 30      24.24298177
  1 6 30      24.24298177
  1 7 30      24.24298177
  1 8 30      24.24298177
  1 9 30      24.24298177
  1 10 30      24.24298177
  1 11 30      24.24298177
  1 12 30      24.24298177
  1 13 30      24.24298177
  1 14 30      24.24298177
  1 15 30      24.24298177
  1 16 30      24.24298177
  1 17 30      24.24298177
  1 18 30      24.24298177
  1 19 30      24.24298177
  1 20 30      24.24298177
  1 21 30      24.24298177
  1 22 30      24.24298177
  1 23 30      24.24298177
  1 24 30      24.24298177
  1 25 30      24.24298177
  1 26 30      24.24298177
  1 27 30      24.24298177
  1 28 30      24.24298177
  1 29 30      24.24298177
  1 30 30      24.24298177
END period  23

BEGIN period  24
  1 1 30      24.05825863
  1 2 30      24.05825863
  1 3 30      24.05825863
  1 4 30      24.05825863
  1 5 30      24.05825863
  1 6 30      24.05825863
  1 7 30      24.05825863
  1 8 30      24.05825863
  1 9 30      24.05825863
  1 10 30      24.05825863
  1 11 30      24.05825863
  1 12 30      24.05825863
  1 13 30      24.05825863
  1 14 30      24.05825863
  1 15 30      24.05825863
  1 16 30      24.05825863
  1 17 30      24.05825863
  1 18 30      24.05825863
  1 19 30      24.05825863
  1 20 30      24.05825863
  1 21 30      24.05825863
  1 22 30      24.05825863
  1 23 30      24.05825863
  1 24 30      24.05825863
  1 25 30      24.05825863
  1 26 30      24.05825863
  1 27 30      24.05825863
  1 28 30      24.05825863
  1 29 30      24.05825863
  1 30 30      24.05825863
END period  24

BEGIN period  25
  1 1 30      24.32290075
  1 2 30      24.32290075
  1 3 30      24.32290075
  1 4 30      24.32290075
  1 5 30      24.32290075
  1 6 30      24.32290075
  1 7 30      24.32290075
  1 8 30      24.32290075
  1 9 30      24.32290075
  1 10 30      24.32290075
  1 11 30      24.32290075
  1 12 30      24.32290075
  1 13 30      24.32290075
  1 14 30      24.32290075
  1 15 30      24.32290075
  1 16 30      24.32290075
  1 17 30      24.32290075
  1 18 30      24.32290075
  1 19 30      24.32290075
  1 20 30      24.32290075
  1 21 30      24.32290075
  1 22 30      24.32290075
  1 23 30      24.32290075
  1 24 30      24.32290075
  1 25 30      24.32290075
  1 26 30      24.32290075
  1 27 30      24.32290075
  1 28 30      24.32290075
  1 29 30      24.32290075
  1 30 30      24.32290075
END period  25

BEGIN period  26
  1 1 30      24.48955380
  1 2 30      24.48955380
  1 3 30      24.48955380
  1 4 30      24.48955380
  1 5 30      24.48955380
  1 6 30      24.48955380
  1 7 30      24.48955380
  1 8 30      24.48955380
  1 9 30      24.48955380
  1 10 30      24.48955380
  1 11 30      24.48955380
  1 12 30      24.48955380
  1 13 30      24.48955380
  1 14 30      24.48955380
  1 15 30      24.48955380
  1 16 30      24.48955380
  1 17 30      24.48955380
  1 18 30      24.48955380
  1 19 30      24.48955380
  1 20 30      24.48955380
  1 21 30      24.48955380
  1 22 30      24.48955380
  1 23 30      24.48955380
  1 24 30      24.48955380
  1 25 30      24.48955380
  1 26 30      24.48955380
  1 27 30      24.48955380
  1 28 30      24.48955380
  1 29 30      24.48955380
  1 30 30      24.48955380
END period  26

BEGIN period  27
  1 1 30      24.93298029
  1 2 30      24.93298029
  1 3 30      24.93298029
  1 4 30      24.93298029
  1 5 30      24.93298029
  1 6 30      24.93298029
  1 7 30      24.93298029
  1 8 30      24.93298029
  1 9 30      24.93298029
  1 10 30      24.93298029
  1 11 30      24.93298029
  1 12 30      24.93298029
  1 13 30      24.93298029
  1 14 30      24.93298029
  1 15 30      24.93298029
  1 16 30      24.93298029
  1 17 30      24.93298029
  1 18 30      24.93298029
  1 19 30      24.93298029
  1 20 30      24.93298029
  1 21 30      24.93298029
  1 22 30      24.93298029
  1 23 30      24.93298029
  1 24 30      24.93298029
  1 25 30      24.93298029
  1 26 30      24.93298029
  1 27 30      24.93298029
  1 28 30      24.93298029
  1 29 30      24.93298029
  1 30 30      24.93298029
END period  27

BEGIN period  28
  1 1 30      25.04598120
  1 2 30      25.04598120
  1 3 30      25.04598120
  1 4 30      25.04598120
  1 5 30      25.04598120
  1 6 30      25.04598120
  1 7 30      25.04598120
  1 8 30      25.04598120
  1 9 30      25.04598120
  1 10 30      25.04598120
  1 11 30      25.04598120
  1 12 30      25.04598120
  1 13 30      25.04598120
  1 14 30      25.04598120
  1 15 30      25.04598120
  1 16 30      25.04598120
  1 17 30      25.04598120
  1 18 30      25.04598120
  1 19 30      25.04598120
  1 20 30      25.04598120
  1 21 30      25.04598120
  1 22 30      25.04598120
  1 23 30      25.04598120
  1 24 30      25.04598120
  1 25 30      25.04598120
  1 26 30      25.04598120
  1 27 30      25.04598120
  1 28 30      25.04598120
  1 29 30      25.04598120
  1 30 30      25.04598120
END period  28

BEGIN period  29
  1 1 30      25.12686117
  1 2 30      25.12686117
  1 3 30      25.12686117
  1 4 30      25.12686117
  1 5 30      25.12686117
  1 6 30      25.12686117
  1 7 30      25.12686117
  1 8 30      25.12686117
  1 9 30      25.12686117
  1 10 30      25.12686117
  1 11 30      25.12686117
  1 12 30      25.12686117
  1 13 30      25.12686117
  1 14 30      25.12686117
  1 15 30      25.12686117
  1 16 30      25.12686117
  1 17 30      25.12686117
  1 18 30      25.12686117
  1 19 30      25.12686117
  1 20 30      25.12686117
  1 21 30      25.12686117
  1 22 30      25.12686117
  1 23 30      25.12686117
  1 24 30      25.12686117
  1 25 30      25.12686117
  1 26 30      25.12686117
  1 27 30      25.12686117
  1 28 30      25.12686117
  1 29 30      25.12686117
  1 30 30      25.12686117
END period  29

BEGIN period  30
  1 1 30      26.55736089
  1 2 30      26.55736089
  1 3 30      26.55736089
  1 4 30      26.55736089
  1 5 30      26.55736089
  1 6 30      26.55736089
  1 7 30      26.55736089
  1 8 30      26.55736089
  1 9 30      26.55736089
  1 10 30      26.55736089
  1 11 30      26.55736089
  1 12 30      26.55736089
  1 13 30      26.55736089
  1 14 30      26.55736089
  1 15 30      26.55736089
  1 16 30      26.55736089
  1 17 30      26.55736089
  1 18 30      26.55736089
  1 19 30      26.55736089
  1 20 30      26.55736089
  1 21 30      26.55736089
  1 22 30      26.55736089
  1 23 30      26.55736089
  1 24 30      26.55736089
  1 25 30      26.55736089
  1 26 30      26.55736089
  1 27 30      26.55736089
  1 28 30      26.55736089
  1 29 30      26.55736089
  1 30 30      26.55736089
END period  30

BEGIN period  31
  1 1 30      25.49481746
  1 2 30      25.49481746
  1 3 30      25.49481746
  1 4 30      25.49481746
  1 5 30      25.49481746
  1 6 30      25.49481746
  1 7 30      25.49481746
  1 8 30      25.49481746
  1 9 30      25.49481746
  1 10 30      25.49481746
  1 11 30      25.49481746
  1 12 30      25.49481746
  1 13 30      25.49481746
  1 14 30      25.49481746
  1 15 30      25.49481746
  1 16 30      25.49481746
  1 17 30      25.49481746
  1 18 30      25.49481746
  1 19 30      25.49481746
  1 20 30      25.49481746
  1 21 30      25.49481746
  1 22 30      25.49481746
  1 23 30      25.49481746
  1 24 30      25.49481746
  1 25 30      25.49481746
  1 26 30      25.49481746
  1 27 30      25.49481746
  1 28 30      25.49481746
  1 29 30      25.49481746
  1 30 30      25.49481746
END period  31

BEGIN period  32
  1 1 30      25.19990080
  1 2 30      25.19990080
  1 3 30      25.19990080
  1 4 30      25.19990080
  1 5 30      25.19990080
  1 6 30      25.19990080
  1 7 30      25.19990080
  1 8 30      25.19990080
  1 9 30      25.19990080
  1 10 30      25.19990080
  1 11 30      25.19990080
  1 12 30      25.19990080
  1 13 30      25.19990080
  1 14 30      25.19990080
  1 15 30      25.19990080
  1 16 30      25.19990080
  1 17 30      25.19990080
  1 18 30      25.19990080
  1 19 30      25.19990080
  1 20 30      25.19990080
  1 21 30      25.19990080
  1 22 30      25.19990080
  1 23 30      25.19990080
  1 24 30      25.19990080
  1 25 30      25.19990080
  1 26 30      25.19990080
  1 27 30      25.19990080
  1 28 30      25.19990080
  1 29 30      25.19990080
  1 30 30      25.19990080
END period  32

BEGIN period  33
  1 1 30      24.94322803
  1 2 30      24.94322803
  1 3 30      24.94322803
  1 4 30      24.94322803
  1 5 30      24.94322803
  1 6 30      24.94322803
  1 7 30      24.94322803
  1 8 30      24.94322803
  1 9 30      24.94322803
  1 10 30      24.94322803
  1 11 30      24.94322803
  1 12 30      24.94322803
  1 13 30      24.94322803
  1 14 30      24.94322803
  1 15 30      24.94322803
  1 16 30      24.94322803
  1 17 30      24.94322803
  1 18 30      24.94322803
  1 19 30      24.94322803
  1 20 30      24.94322803
  1 21 30      24.94322803
  1 22 30      24.94322803
  1 23 30      24.94322803
  1 24 30      24.94322803
  1 25 30      24.94322803
  1 26 30      24.94322803
  1 27 30      24.94322803
  1 28 30      24.94322803
  1 29 30      24.94322803
  1 30 30      24.94322803
END period  33

BEGIN period  34
  1 1 30      24.33527545
  1 2 30      24.33527545
  1 3 30      24.33527545
  1 4 30      24.33527545
  1 5 30      24.33527545
  1 6 30      24.33527545
  1 7 30      24.33527545
  1 8 30      24.33527545
  1 9 30      24.33527545
  1 10 30      24.33527545
  1 11 30      24.33527545
  1 12 30      24.33527545
  1 13 30      24.33527545
  1 14 30      24.33527545
  1 15 30      24.33527545
  1 16 30      24.33527545
  1 17 30      24.33527545
  1 18 30      24.33527545
  1 19 30      24.33527545
  1 20 30      24.33527545
  1 21 30      24.33527545
  1 22 30      24.33527545
  1 23 30      24.33527545
  1 24 30      24.33527545
  1 25 30      24.33527545
  1 26 30      24.33527545
  1 27 30      24.33527545
  1 28 30      24.33527545
  1 29 30      24.33527545
  1 30 30      24.33527545
END period  34

BEGIN period  35
  1 1 30      24.24298177
  1 2 30      24.24298177
  1 3 30      24.24298177
  1 4 30      24.24298177
  1 5 30      24.24298177
  1 6 30      24.24298177
  1 7 30      24.24298177
  1 8 30      24.24298177
  1 9 30      24.24298177
  1 10 30      24.24298177
  1 11 30      24.24298177
  1 12 30      24.24298177
  1 13 30      24.24298177
  1 14 30      24.24298177
  1 15 30      24.24298177
  1 16 30      24.24298177
  1 17 30      24.24298177
  1 18 30      24.24298177
  1 19 30      24.24298177
  1 20 30      24.24298177
  1 21 30      24.24298177
  1 22 30      24.24298177
  1 23 30      24.24298177
  1 24 30      24.24298177
  1 25 30      24.24298177
  1 26 30      24.24298177
  1 27 30      24.24298177
  1 28 30      24.24298177
  1 29 30      24.24298177
  1 30 30      24.24298177
END period  35

BEGIN period  36
  1 1 30      24.05825863
  1 2 30      24.05825863
  1 3 30      24.05825863
  1 4 30      24.05825863
  1 5 30      24.05825863
  1 6 30      24.05825863
  1 7 30      24.05825863
  1 8 30      24.05825863
  1 9 30      24.05825863
  1 10 30      24.05825863
  1 11 30      24.05825863
  1 12 30      24.05825863
  1 13 30      24.05825863
  1 14 30      24.05825863
  1 15 30      24.05825863
  1 16 30      24.05825863
  1 17 30      24.05825863
  1 18 30      24.05825863
  1 19 30      24.05825863
  1 20 30      24.05825863
  1 21 30      24.05825863
  1 22 30      24.05825863
  1 23 30      24.05825863
  1 24 30      24.05825863
  1 25 30      24.05825863
  1 26 30      24.05825863
  1 27 30      24.05825863