BEGIN options
END options

BEGIN dimensions
  MAXBOUND  30
END dimensions

BEGIN period  1
  1 1 30      24.14687672
  1 2 30      24.14687672
  1 3 30      24.14687672
  1 4 30      24.14687672
  1 5 30      24.14687672
  1 6 30      24.14687672
  1 7 30      24.14687672
  1 8 30      24.14687672
  1 9 30      24.14687672
  1 10 30      24.14687672
  1 11 30      24.14687672
  1 12 30      24.14687672
  1 13 30      24.14687672
  1 14 30      24.14687672
  1 15 30      24.14687672
  1 16 30      24.14687672
  1 17 30      24.14687672
  1 18 30      24.14687672
  1 19 30      24.14687672
  1 20 30      24.14687672
  1 21 30      24.14687672
  1 22 30      24.14687672
  1 23 30      24.14687672
  1 24 30      24.14687672
  1 25 30      24.14687672
  1 26 30      24.14687672
  1 27 30      24.14687672
  1 28 30      24.14687672
  1 29 30      24.14687672
  1 30 30      24.14687672
END period  1

BEGIN period  2
  1 1 30      24.26583862
  1 2 30      24.26583862
  1 3 30      24.26583862
  1 4 30      24.26583862
  1 5 30      24.26583862
  1 6 30      24.26583862
  1 7 30      24.26583862
  1 8 30      24.26583862
  1 9 30      24.26583862
  1 10 30      24.26583862
  1 11 30      24.26583862
  1 12 30      24.26583862
  1 13 30      24.26583862
  1 14 30      24.26583862
  1 15 30      24.26583862
  1 16 30      24.26583862
  1 17 30      24.26583862
  1 18 30      24.26583862
  1 19 30      24.26583862
  1 20 30      24.26583862
  1 21 30      24.26583862
  1 22 30      24.26583862
  1 23 30      24.26583862
  1 24 30      24.26583862
  1 25 30      24.26583862
  1 26 30      24.26583862
  1 27 30      24.26583862
  1 28 30      24.26583862
  1 29 30      24.26583862
  1 30 30      24.26583862
END period  2

BEGIN period  3
  1 1 30      24.61394722
  1 2 30      24.61394722
  1 3 30      24.61394722
  1 4 30      24.61394722
  1 5 30      24.61394722
  1 6 30      24.61394722
  1 7 30      24.61394722
  1 8 30      24.61394722
  1 9 30      24.61394722
  1 10 30      24.61394722
  1 11 30      24.61394722
  1 12 30      24.61394722
  1 13 30      24.61394722
  1 14 30      24.61394722
  1 15 30      24.61394722
  1 16 30      24.61394722
  1 17 30      24.61394722
  1 18 30      24.61394722
  1 19 30      24.61394722
  1 20 30      24.61394722
  1 21 30      24.61394722
  1 22 30      24.61394722
  1 23 30      24.61394722
  1 24 30      24.61394722
  1 25 30      24.61394722
  1 26 30      24.61394722
  1 27 30      24.61394722
  1 28 30      24.61394722
  1 29 30      24.61394722
  1 30 30      24.61394722
END period  3

BEGIN period  4
  1 1 30      25.03274171
  1 2 30      25.03274171
  1 3 30      25.03274171
  1 4 30      25.03274171
  1 5 30      25.03274171
  1 6 30      25.03274171
  1 7 30      25.03274171
  1 8 30      25.03274171
  1 9 30      25.03274171
  1 10 30      25.03274171
  1 11 30      25.03274171
  1 12 30      25.03274171
  1 13 30      25.03274171
  1 14 30      25.03274171
  1 15 30      25.03274171
  1 16 30      25.03274171
  1 17 30      25.03274171
  1 18 30      25.03274171
  1 19 30      25.03274171
  1 20 30      25.03274171
  1 21 30      25.03274171
  1 22 30      25.03274171
  1 23 30      25.03274171
  1 24 30      25.03274171
  1 25 30      25.03274171
  1 26 30      25.03274171
  1 27 30      25.03274171
  1 28 30      25.03274171
  1 29 30      25.03274171
  1 30 30      25.03274171
END period  4

BEGIN period  5
  1 1 30      25.24921420
  1 2 30      25.24921420
  1 3 30      25.24921420
  1 4 30      25.24921420
  1 5 30      25.24921420
  1 6 30      25.24921420
  1 7 30      25.24921420
  1 8 30      25.24921420
  1 9 30      25.24921420
  1 10 30      25.24921420
  1 11 30      25.24921420
  1 12 30      25.24921420
  1 13 30      25.24921420
  1 14 30      25.24921420
  1 15 30      25.24921420
  1 16 30      25.24921420
  1 17 30      25.24921420
  1 18 30      25.24921420
  1 19 30      25.24921420
  1 20 30      25.24921420
  1 21 30      25.24921420
  1 22 30      25.24921420
  1 23 30      25.24921420
  1 24 30      25.24921420
  1 25 30      25.24921420
  1 26 30      25.24921420
  1 27 30      25.24921420
  1 28 30      25.24921420
  1 29 30      25.24921420
  1 30 30      25.24921420
END period  5

BEGIN period  6
  1 1 30      25.57298441
  1 2 30      25.57298441
  1 3 30      25.57298441
  1 4 30      25.57298441
  1 5 30      25.57298441
  1 6 30      25.57298441
  1 7 30      25.57298441
  1 8 30      25.57298441
  1 9 30      25.57298441
  1 10 30      25.57298441
  1 11 30      25.57298441
  1 12 30      25.57298441
  1 13 30      25.57298441
  1 14 30      25.57298441
  1 15 30      25.57298441
  1 16 30      25.57298441
  1 17 30      25.57298441
  1 18 30      25.57298441
  1 19 30      25.57298441
  1 20 30      25.57298441
  1 21 30      25.57298441
  1 22 30      25.57298441
  1 23 30      25.57298441
  1 24 30      25.57298441
  1 25 30      25.57298441
  1 26 30      25.57298441
  1 27 30      25.57298441
  1 28 30      25.57298441
  1 29 30      25.57298441
  1 30 30      25.57298441
END period  6

BEGIN period  7
  1 1 30      26.08623742
  1 2 30      26.08623742
  1 3 30      26.08623742
  1 4 30      26.08623742
  1 5 30      26.08623742
  1 6 30      26.08623742
  1 7 30      26.08623742
  1 8 30      26.08623742
  1 9 30      26.08623742
  1 10 30      26.08623742
  1 11 30      26.08623742
  1 12 30      26.08623742
  1 13 30      26.08623742
  1 14 30      26.08623742
  1 15 30      26.08623742
  1 16 30      26.08623742
  1 17 30      26.08623742
  1 18 30      26.08623742
  1 19 30      26.08623742
  1 20 30      26.08623742
  1 21 30      26.08623742
  1 22 30      26.08623742
  1 23 30      26.08623742
  1 24 30      26.08623742
  1 25 30      26.08623742
  1 26 30      26.08623742
  1 27 30      26.08623742
  1 28 30      26.08623742
  1 29 30      26.08623742
  1 30 30      26.08623742
END period  7

BEGIN period  8
  1 1 30      25.44561462
  1 2 30      25.44561462
  1 3 30      25.44561462
  1 4 30      25.44561462
  1 5 30      25.44561462
  1 6 30      25.44561462
  1 7 30      25.44561462
  1 8 30      25.44561462
  1 9 30      25.44561462
  1 10 30      25.44561462
  1 11 30      25.44561462
  1 12 30      25.44561462
  1 13 30      25.44561462
  1 14 30      25.44561462
  1 15 30      25.44561462
  1 16 30      25.44561462
  1 17 30      25.44561462
  1 18 30      25.44561462
  1 19 30      25.44561462
  1 20 30      25.44561462
  1 21 30      25.44561462
  1 22 30      25.44561462
  1 23 30      25.44561462
  1 24 30      25.44561462
  1 25 30      25.44561462
  1 26 30      25.44561462
  1 27 30      25.44561462
  1 28 30      25.44561462
  1 29 30      25.44561462
  1 30 30      25.44561462
END period  8

BEGIN period  9
  1 1 30      25.35216455
  1 2 30      25.35216455
  1 3 30      25.35216455
  1 4 30      25.35216455
  1 5 30      25.35216455
  1 6 30      25.35216455
  1 7 30      25.35216455
  1 8 30      25.35216455
  1 9 30      25.35216455
  1 10 30      25.35216455
  1 11 30      25.35216455
  1 12 30      25.35216455
  1 13 30      25.35216455
  1 14 30      25.35216455
  1 15 30      25.35216455
  1 16 30      25.35216455
  1 17 30      25.35216455
  1 18 30      25.35216455
  1 19 30      25.35216455
  1 20 30      25.35216455
  1 21 30      25.35216455
  1 22 30      25.35216455
  1 23 30      25.35216455
  1 24 30      25.35216455
  1 25 30      25.35216455
  1 26 30      25.35216455
  1 27 30      25.35216455
  1 28 30      25.35216455
  1 29 30      25.35216455
  1 30 30      25.35216455
END period  9

BEGIN period  10
  1 1 30      25.21147499
  1 2 30      25.21147499
  1 3 30      25.21147499
  1 4 30      25.21147499
  1 5 30      25.21147499
  1 6 30      25.21147499
  1 7 30      25.21147499
  1 8 30      25.21147499
  1 9 30      25.21147499
  1 10 30      25.21147499
  1 11 30      25.21147499
  1 12 30      25.21147499
  1 13 30      25.21147499
  1 14 30      25.21147499
  1 15 30      25.21147499
  1 16 30      25.21147499
  1 17 30      25.21147499
  1 18 30      25.21147499
  1 19 30      25.21147499
  1 20 30      25.21147499
  1 21 30      25.21147499
  1 22 30      25.21147499
  1 23 30      25.21147499
  1 24 30      25.21147499
  1 25 30      25.21147499
  1 26 30      25.21147499
  1 27 30      25.21147499
  1 28 30      25.21147499
  1 29 30      25.21147499
  1 30 30      25.21147499
END period  10

BEGIN period  11
  1 1 30      25.05434192
  1 2 30      25.05434192
  1 3 30      25.05434192
  1 4 30      25.05434192
  1 5 30      25.05434192
  1 6 30      25.05434192
  1 7 30      25.05434192
  1 8 30      25.05434192
  1 9 30      25.05434192
  1 10 30      25.05434192
  1 11 30      25.05434192
  1 12 30      25.05434192
  1 13 30      25.05434192
  1 14 30      25.05434192
  1 15 30      25.05434192
  1 16 30      25.05434192
  1 17 30      25.05434192
  1 18 30      25.05434192
  1 19 30      25.05434192
  1 20 30      25.05434192
  1 21 30      25.05434192
  1 22 30      25.05434192
  1 23 30      25.05434192
  1 24 30      25.05434192
  1 25 30      25.05434192
  1 26 30      25.05434192
  1 27 30      25.05434192
  1 28 30      25.05434192
  1 29 30      25.05434192
  1 30 30      25.05434192
END period  11

BEGIN period  12
  1 1 30      24.89535052
  1 2 30      24.89535052
  1 3 30      24.89535052
  1 4 30      24.89535052
  1 5 30      24.89535052
  1 6 30      24.89535052
  1 7 30      24.89535052
  1 8 30      24.89535052
  1 9 30      24.89535052
  1 10 30      24.89535052
  1 11 30      24.89535052
  1 12 30      24.89535052
  1 13 30      24.89535052
  1 14 30      24.89535052
  1 15 30      24.89535052
  1 16 30      24.89535052
  1 17 30      24.89535052
  1 18 30      24.89535052
  1 19 30      24.89535052
  1 20 30      24.89535052
  1 21 30      24.89535052
  1 22 30      24.89535052
  1 23 30      24.89535052
  1 24 30      24.89535052
  1 25 30      24.89535052
  1 26 30      24.89535052
  1 27 30      24.89535052
  1 28 30      24.89535052
  1 29 30      24.89535052
  1 30 30      24.89535052
END period  12

BEGIN period  13
  1 1 30      24.14687672
  1 2 30      24.14687672
  1 3 30      24.14687672
  1 4 30      24.14687672
  1 5 30      24.14687672
  1 6 30      24.14687672
  1 7 30      24.14687672
  1 8 30      24.14687672
  1 9 30      24.14687672
  1 10 30      24.14687672
  1 11 30      24.14687672
  1 12 30      24.14687672
  1 13 30      24.14687672
  1 14 30      24.14687672
  1 15 30      24.14687672
  1 16 30      24.14687672
  1 17 30      24.14687672
  1 18 30      24.14687672
  1 19 30      24.14687672
  1 20 30      24.14687672
  1 21 30      24.14687672
  1 22 30      24.14687672
  1 23 30      24.14687672
  1 24 30      24.14687672
  1 25 30      24.14687672
  1 26 30      24.14687672
  1 27 30      24.14687672
  1 28 30      24.14687672
  1 29 30      24.14687672
  1 30 30      24.14687672
END period  13

BEGIN period  14
  1 1 30      24.26583862
  1 2 30      24.26583862
  1 3 30      24.26583862
  1 4 30      24.26583862
  1 5 30      24.26583862
  1 6 30      24.26583862
  1 7 30      24.26583862
  1 8 30      24.26583862
  1 9 30      24.26583862
  1 10 30      24.26583862
  1 11 30      24.26583862
  1 12 30      24.26583862
  1 13 30      24.26583862
  1 14 30      24.26583862
  1 15 30      24.26583862
  1 16 30      24.26583862
  1 17 30      24.26583862
  1 18 30      24.26583862
  1 19 30      24.26583862
  1 20 30      24.26583862
  1 21 30      24.26583862
  1 22 30      24.26583862
  1 23 30      24.26583862
  1 24 30      24.26583862
  1 25 30      24.26583862
  1 26 30      24.26583862
  1 27 30      24.26583862
  1 28 30      24.26583862
  1 29 30      24.26583862
  1 30 30      24.26583862
END period  14

BEGIN period  15
  1 1 30      24.61394722
  1 2 30      24.61394722
  1 3 30      24.61394722
  1 4 30      24.61394722
  1 5 30      24.61394722
  1 6 30      24.61394722
  1 7 30      24.61394722
  1 8 30      24.61394722
  1 9 30      24.61394722
  1 10 30      24.61394722
  1 11 30      24.61394722
  1 12 30      24.61394722
  1 13 30      24.61394722
  1 14 30      24.61394722
  1 15 30      24.61394722
  1 16 30      24.61394722
  1 17 30      24.61394722
  1 18 30      24.61394722
  1 19 30      24.61394722
  1 20 30      24.61394722
  1 21 30      24.61394722
  1 22 30      24.61394722
  1 23 30      24.61394722
  1 24 30      24.61394722
  1 25 30      24.61394722
  1 26 30      24.61394722
  1 27 30      24.61394722
  1 28 30      24.61394722
  1 29 30      24.61394722
  1 30 30      24.61394722
END period  15

BEGIN period  16
  1 1 30      25.03274171
  1 2 30      25.03274171
  1 3 30      25.03274171
  1 4 30      25.03274171
  1 5 30      25.03274171
  1 6 30      25.03274171
  1 7 30      25.03274171
  1 8 30      25.03274171
  1 9 30      25.03274171
  1 10 30      25.03274171
  1 11 30      25.03274171
  1 12 30      25.03274171
  1 13 30      25.03274171
  1 14 30      25.03274171
  1 15 30      25.03274171
  1 16 30      25.03274171
  1 17 30      25.03274171
  1 18 30      25.03274171
  1 19 30      25.03274171
  1 20 30      25.03274171
  1 21 30      25.03274171
  1 22 30      25.03274171
  1 23 30      25.03274171
  1 24 30      25.03274171
  1 25 30      25.03274171
  1 26 30      25.03274171
  1 27 30      25.03274171
  1 28 30      25.03274171
  1 29 30      25.03274171
  1 30 30      25.03274171
END period  16

BEGIN period  17
  1 1 30      25.24921420
  1 2 30      25.24921420
  1 3 30      25.24921420
  1 4 30      25.24921420
  1 5 30      25.24921420
  1 6 30      25.24921420
  1 7 30      25.24921420
  1 8 30      25.24921420
  1 9 30      25.24921420
  1 10 30      25.24921420
  1 11 30      25.24921420
  1 12 30      25.24921420
  1 13 30      25.24921420
  1 14 30      25.24921420
  1 15 30      25.24921420
  1 16 30      25.24921420
  1 17 30      25.24921420
  1 18 30      25.24921420
  1 19 30      25.24921420
  1 20 30      25.24921420
  1 21 30      25.24921420
  1 22 30      25.24921420
  1 23 30      25.24921420
  1 24 30      25.24921420
  1 25 30      25.24921420
  1 26 30      25.24921420
  1 27 30      25.24921420
  1 28 30      25.24921420
  1 29 30      25.24921420
  1 30 30      25.24921420
END period  17

BEGIN period  18
  1 1 30      25.57298441
  1 2 30      25.57298441
  1 3 30      25.57298441
  1 4 30      25.57298441
  1 5 30      25.57298441
  1 6 30      25.57298441
  1 7 30      25.57298441
  1 8 30      25.57298441
  1 9 30      25.57298441
  1 10 30      25.57298441
  1 11 30      25.57298441
  1 12 30      25.57298441
  1 13 30      25.57298441
  1 14 30      25.57298441
  1 15 30      25.57298441
  1 16 30      25.57298441
  1 17 30      25.57298441
  1 18 30      25.57298441
  1 19 30      25.57298441
  1 20 30      25.57298441
  1 21 30      25.57298441
  1 22 30      25.57298441
  1 23 30      25.57298441
  1 24 30      25.57298441
  1 25 30      25.57298441
  1 26 30      25.57298441
  1 27 30      25.57298441
  1 28 30      25.57298441
  1 29 30      25.57298441
  1 30 30      25.57298441
END period  18

BEGIN period  19
  1 1 30      26.08623742
  1 2 30      26.08623742
  1 3 30      26.08623742
  1 4 30      26.08623742
  1 5 30      26.08623742
  1 6 30      26.08623742
  1 7 30      26.08623742
  1 8 30      26.08623742
  1 9 30      26.08623742
  1 10 30      26.08623742
  1 11 30      26.08623742
  1 12 30      26.08623742
  1 13 30      26.08623742
  1 14 30      26.08623742
  1 15 30      26.08623742
  1 16 30      26.08623742
  1 17 30      26.08623742
  1 18 30      26.08623742
  1 19 30      26.08623742
  1 20 30      26.08623742
  1 21 30      26.08623742
  1 22 30      26.08623742
  1 23 30      26.08623742
  1 24 30      26.08623742
  1 25 30      26.08623742
  1 26 30      26.08623742
  1 27 30      26.08623742
  1 28 30      26.08623742
  1 29 30      26.08623742
  1 30 30      26.08623742
END period  19

BEGIN period  20
  1 1 30      25.44561462
  1 2 30      25.44561462
  1 3 30      25.44561462
  1 4 30      25.44561462
  1 5 30      25.44561462
  1 6 30      25.44561462
  1 7 30      25.44561462
  1 8 30      25.44561462
  1 9 30      25.44561462
  1 10 30      25.44561462
  1 11 30      25.44561462
  1 12 30      25.44561462
  1 13 30      25.44561462
  1 14 30      25.44561462
  1 15 30      25.44561462
  1 16 30      25.44561462
  1 17 30      25.44561462
  1 18 30      25.44561462
  1 19 30      25.44561462
  1 20 30      25.44561462
  1 21 30      25.44561462
  1 22 30      25.44561462
  1 23 30      25.44561462
  1 24 30      25.44561462
  1 25 30      25.44561462
  1 26 30      25.44561462
  1 27 30      25.44561462
  1 28 30      25.44561462
  1 29 30      25.44561462
  1 30 30      25.44561462
END period  20

BEGIN period  21
  1 1 30      25.35216455
  1 2 30      25.35216455
  1 3 30      25.35216455
  1 4 30      25.35216455
  1 5 30      25.35216455
  1 6 30      25.35216455
  1 7 30      25.35216455
  1 8 30      25.35216455
  1 9 30      25.35216455
  1 10 30      25.35216455
  1 11 30      25.35216455
  1 12 30      25.35216455
  1 13 30      25.35216455
  1 14 30      25.35216455
  1 15 30      25.35216455
  1 16 30      25.35216455
  1 17 30      25.35216455
  1 18 30      25.35216455
  1 19 30      25.35216455
  1 20 30      25.35216455
  1 21 30      25.35216455
  1 22 30      25.35216455
  1 23 30      25.35216455
  1 24 30      25.35216455
  1 25 30      25.35216455
  1 26 30      25.35216455
  1 27 30      25.35216455
  1 28 30      25.35216455
  1 29 30      25.35216455
  1 30 30      25.35216455
END period  21

BEGIN period  22
  1 1 30      25.21147499
  1 2 30      25.21147499
  1 3 30      25.21147499
  1 4 30      25.21147499
  1 5 30      25.21147499
  1 6 30      25.21147499
  1 7 30      25.21147499
  1 8 30      25.21147499
  1 9 30      25.21147499
  1 10 30      25.21147499
  1 11 30      25.21147499
  1 12 30      25.21147499
  1 13 30      25.21147499
  1 14 30      25.21147499
  1 15 30      25.21147499
  1 16 30      25.21147499
  1 17 30      25.21147499
  1 18 30      25.21147499
  1 19 30      25.21147499
  1 20 30      25.21147499
  1 21 30      25.21147499
  1 22 30      25.21147499
  1 23 30      25.21147499
  1 24 30      25.21147499
  1 25 30      25.21147499
  1 26 30      25.21147499
  1 27 30      25.21147499
  1 28 30      25.21147499
  1 29 30      25.21147499
  1 30 30      25.21147499
END period  22

BEGIN period  23
  1 1 30      25.05434192
  1 2 30      25.05434192
  1 3 30      25.05434192
  1 4 30      25.05434192
  1 5 30      25.05434192
  1 6 30      25.05434192
  1 7 30      25.05434192
  1 8 30      25.05434192
  1 9 30      25.05434192
  1 10 30      25.05434192
  1 11 30      25.05434192
  1 12 30      25.05434192
  1 13 30      25.05434192
  1 14 30      25.05434192
  1 15 30      25.05434192
  1 16 30      25.05434192
  1 17 30      25.05434192
  1 18 30      25.05434192
  1 19 30      25.05434192
  1 20 30      25.05434192
  1 21 30      25.05434192
  1 22 30      25.05434192
  1 23 30      25.05434192
  1 24 30      25.05434192
  1 25 30      25.05434192
  1 26 30      25.05434192
  1 27 30      25.05434192
  1 28 30      25.05434192
  1 29 30      25.05434192
  1 30 30      25.05434192
END period  23

BEGIN period  24
  1 1 30      24.89535052
  1 2 30      24.89535052
  1 3 30      24.89535052
  1 4 30      24.89535052
  1 5 30      24.89535052
  1 6 30      24.89535052
  1 7 30      24.89535052
  1 8 30      24.89535052
  1 9 30      24.89535052
  1 10 30      24.89535052
  1 11 30      24.89535052
  1 12 30      24.89535052
  1 13 30      24.89535052
  1 14 30      24.89535052
  1 15 30      24.89535052
  1 16 30      24.89535052
  1 17 30      24.89535052
  1 18 30      24.89535052
  1 19 30      24.89535052
  1 20 30      24.89535052
  1 21 30      24.89535052
  1 22 30      24.89535052
  1 23 30      24.89535052
  1 24 30      24.89535052
  1 25 30      24.89535052
  1 26 30      24.89535052
  1 27 30      24.89535052
  1 28 30      24.89535052
  1 29 30      24.89535052
  1 30 30      24.89535052
END period  24

BEGIN period  25
  1 1 30      24.14687672
  1 2 30      24.14687672
  1 3 30      24.14687672
  1 4 30      24.14687672
  1 5 30      24.14687672
  1 6 30      24.14687672
  1 7 30      24.14687672
  1 8 30      24.14687672
  1 9 30      24.14687672
  1 10 30      24.14687672
  1 11 30      24.14687672
  1 12 30      24.14687672
  1 13 30      24.14687672
  1 14 30      24.14687672
  1 15 30      24.14687672
  1 16 30      24.14687672
  1 17 30      24.14687672
  1 18 30      24.14687672
  1 19 30      24.14687672
  1 20 30      24.14687672
  1 21 30      24.14687672
  1 22 30      24.14687672
  1 23 30      24.14687672
  1 24 30      24.14687672
  1 25 30      24.14687672
  1 26 30      24.14687672
  1 27 30      24.14687672
  1 28 30      24.14687672
  1 29 30      24.14687672
  1 30 30      24.14687672
END period  25

BEGIN period  26
  1 1 30      24.26583862
  1 2 30      24.26583862
  1 3 30      24.26583862
  1 4 30      24.26583862
  1 5 30      24.26583862
  1 6 30      24.26583862
  1 7 30      24.26583862
  1 8 30      24.26583862
  1 9 30      24.26583862
  1 10 30      24.26583862
  1 11 30      24.26583862
  1 12 30      24.26583862
  1 13 30      24.26583862
  1 14 30      24.26583862
  1 15 30      24.26583862
  1 16 30      24.26583862
  1 17 30      24.26583862
  1 18 30      24.26583862
  1 19 30      24.26583862
  1 20 30      24.26583862
  1 21 30      24.26583862
  1 22 30      24.26583862
  1 23 30      24.26583862
  1 24 30      24.26583862
  1 25 30      24.26583862
  1 26 30      24.26583862
  1 27 30      24.26583862
  1 28 30      24.26583862
  1 29 30      24.26583862
  1 30 30      24.26583862
END period  26

BEGIN period  27
  1 1 30      24.61394722
  1 2 30      24.61394722
  1 3 30      24.61394722
  1 4 30      24.61394722
  1 5 30      24.61394722
  1 6 30      24.61394722
  1 7 30      24.61394722
  1 8 30      24.61394722
  1 9 30      24.61394722
  1 10 30      24.61394722
  1 11 30      24.61394722
  1 12 30      24.61394722
  1 13 30      24.61394722
  1 14 30      24.61394722
  1 15 30      24.61394722
  1 16 30      24.61394722
  1 17 30      24.61394722
  1 18 30      24.61394722
  1 19 30      24.61394722
  1 20 30      24.61394722
  1 21 30      24.61394722
  1 22 30      24.61394722
  1 23 30      24.61394722
  1 24 30      24.61394722
  1 25 30      24.61394722
  1 26 30      24.61394722
  1 27 30      24.61394722
  1 28 30      24.61394722
  1 29 30      24.61394722
  1 30 30      24.61394722
END period  27

BEGIN period  28
  1 1 30      25.03274171
  1 2 30      25.03274171
  1 3 30      25.03274171
  1 4 30      25.03274171
  1 5 30      25.03274171
  1 6 30      25.03274171
  1 7 30      25.03274171
  1 8 30      25.03274171
  1 9 30      25.03274171
  1 10 30      25.03274171
  1 11 30      25.03274171
  1 12 30      25.03274171
  1 13 30      25.03274171
  1 14 30      25.03274171
  1 15 30      25.03274171
  1 16 30      25.03274171
  1 17 30      25.03274171
  1 18 30      25.03274171
  1 19 30      25.03274171
  1 20 30      25.03274171
  1 21 30      25.03274171
  1 22 30      25.03274171
  1 23 30      25.03274171
  1 24 30      25.03274171
  1 25 30      25.03274171
  1 26 30      25.03274171
  1 27 30      25.03274171
  1 28 30      25.03274171
  1 29 30      25.03274171
  1 30 30      25.03274171
END period  28

BEGIN period  29
  1 1 30      25.24921420
  1 2 30      25.24921420
  1 3 30      25.24921420
  1 4 30      25.24921420
  1 5 30      25.24921420
  1 6 30      25.24921420
  1 7 30      25.24921420
  1 8 30      25.24921420
  1 9 30      25.24921420
  1 10 30      25.24921420
  1 11 30      25.24921420
  1 12 30      25.24921420
  1 13 30      25.24921420
  1 14 30      25.24921420
  1 15 30      25.24921420
  1 16 30      25.24921420
  1 17 30      25.24921420
  1 18 30      25.24921420
  1 19 30      25.24921420
  1 20 30      25.24921420
  1 21 30      25.24921420
  1 22 30      25.24921420
  1 23 30      25.24921420
  1 24 30      25.24921420
  1 25 30      25.24921420
  1 26 30      25.24921420
  1 27 30      25.24921420
  1 28 30      25.24921420
  1 29 30      25.24921420
  1 30 30      25.24921420
END period  29

BEGIN period  30
  1 1 30      25.57298441
  1 2 30      25.57298441
  1 3 30      25.57298441
  1 4 30      25.57298441
  1 5 30      25.57298441
  1 6 30      25.57298441
  1 7 30      25.57298441
  1 8 30      25.57298441
  1 9 30      25.57298441
  1 10 30      25.57298441
  1 11 30      25.57298441
  1 12 30      25.57298441
  1 13 30      25.57298441
  1 14 30      25.57298441
  1 15 30      25.57298441
  1 16 30      25.57298441
  1 17 30      25.57298441
  1 18 30      25.57298441
  1 19 30      25.57298441
  1 20 30      25.57298441
  1 21 30      25.57298441
  1 22 30      25.57298441
  1 23 30      25.57298441
  1 24 30      25.57298441
  1 25 30      25.57298441
  1 26 30      25.57298441
  1 27 30      25.57298441
  1 28 30      25.57298441
  1 29 30      25.57298441
  1 30 30      25.57298441
END period  30

BEGIN period  31
  1 1 30      26.08623742
  1 2 30      26.08623742
  1 3 30      26.08623742
  1 4 30      26.08623742
  1 5 30      26.08623742
  1 6 30      26.08623742
  1 7 30      26.08623742
  1 8 30      26.08623742
  1 9 30      26.08623742
  1 10 30      26.08623742
  1 11 30      26.08623742
  1 12 30      26.08623742
  1 13 30      26.08623742
  1 14 30      26.08623742
  1 15 30      26.08623742
  1 16 30      26.08623742
  1 17 30      26.08623742
  1 18 30      26.08623742
  1 19 30      26.08623742
  1 20 30      26.08623742
  1 21 30      26.08623742
  1 22 30      26.08623742
  1 23 30      26.08623742
  1 24 30      26.08623742
  1 25 30      26.08623742
  1 26 30      26.08623742
  1 27 30      26.08623742
  1 28 30      26.08623742
  1 29 30      26.08623742
  1 30 30      26.08623742
END period  31

BEGIN period  32
  1 1 30      25.44561462
  1 2 30      25.44561462
  1 3 30      25.44561462
  1 4 30      25.44561462
  1 5 30      25.44561462
  1 6 30      25.44561462
  1 7 30      25.44561462
  1 8 30      25.44561462
  1 9 30      25.44561462
  1 10 30      25.44561462
  1 11 30      25.44561462
  1 12 30      25.44561462
  1 13 30      25.44561462
  1 14 30      25.44561462
  1 15 30      25.44561462
  1 16 30      25.44561462
  1 17 30      25.44561462
  1 18 30      25.44561462
  1 19 30      25.44561462
  1 20 30      25.44561462
  1 21 30      25.44561462
  1 22 30      25.44561462
  1 23 30      25.44561462
  1 24 30      25.44561462
  1 25 30      25.44561462
  1 26 30      25.44561462
  1 27 30      25.44561462
  1 28 30      25.44561462
  1 29 30      25.44561462
  1 30 30      25.44561462
END period  32

BEGIN period  33
  1 1 30      25.35216455
  1 2 30      25.35216455
  1 3 30      25.35216455
  1 4 30      25.35216455
  1 5 30      25.35216455
  1 6 30      25.35216455
  1 7 30      25.35216455
  1 8 30      25.35216455
  1 9 30      25.35216455
  1 10 30      25.35216455
  1 11 30      25.35216455
  1 12 30      25.35216455
  1 13 30      25.35216455
  1 14 30      25.35216455
  1 15 30      25.35216455
  1 16 30      25.35216455
  1 17 30      25.35216455
  1 18 30      25.35216455
  1 19 30      25.35216455
  1 20 30      25.35216455
  1 21 30      25.35216455
  1 22 30      25.35216455
  1 23 30      25.35216455
  1 24 30      25.35216455
  1 25 30      25.35216455
  1 26 30      25.35216455
  1 27 30      25.35216455
  1 28 30      25.35216455
  1 29 30      25.35216455
  1 30 30      25.35216455
END period  33

BEGIN period  34
  1 1 30      25.21147499
  1 2 30      25.21147499
  1 3 30      25.21147499
  1 4 30      25.21147499
  1 5 30      25.21147499
  1 6 30      25.21147499
  1 7 30      25.21147499
  1 8 30      25.21147499
  1 9 30      25.21147499
  1 10 30      25.21147499
  1 11 30      25.21147499
  1 12 30      25.21147499
  1 13 30      25.21147499
  1 14 30      25.21147499
  1 15 30      25.21147499
  1 16 30      25.21147499
  1 17 30      25.21147499
  1 18 30      25.21147499
  1 19 30      25.21147499
  1 20 30      25.21147499
  1 21 30      25.21147499
  1 22 30      25.21147499
  1 23 30      25.21147499
  1 24 30      25.21147499
  1 25 30      25.21147499
  1 26 30      25.21147499
  1 27 30      25.21147499
  1 28 30      25.21147499
  1 29 30      25.21147499
  1 30 30      25.21147499
END period  34

BEGIN period  35
  1 1 30      25.05434192
  1 2 30      25.05434192
  1 3 30      25.05434192
  1 4 30      25.05434192
  1 5 30      25.05434192
  1 6 30      25.05434192
  1 7 30      25.05434192
  1 8 30      25.05434192
  1 9 30      25.05434192
  1 10 30      25.05434192
  1 11 30      25.05434192
  1 12 30      25.05434192
  1 13 30      25.05434192
  1 14 30      25.05434192
  1 15 30      25.05434192
  1 16 30      25.05434192
  1 17 30      25.05434192
  1 18 30      25.05434192
  1 19 30      25.05434192
  1 20 30      25.05434192
  1 21 30      25.05434192
  1 22 30      25.05434192
  1 23 30      25.05434192
  1 24 30      25.05434192
  1 25 30      25.05434192
  1 26 30      25.05434192
  1 27 30      25.05434192
  1 28 30      25.05434192
  1 29 30      25.05434192
  1 30 30      25.05434192
END period  35

BEGIN period  36
  1 1 30      24.89535052
  1 2 30      24.89535052
  1 3 30      24.89535052
  1 4 30      24.89535052
  1 5 30      24.89535052
  1 6 30      24.89535052
  1 7 30      24.89535052
  1 8 30      24.89535052
  1 9 30      24.89535052
  1 10 30      24.89535052
  1 11 30      24.89535052
  1 12 30      24.89535052
  1 13 30      24.89535052
  1 14 30      24.89535052
  1 15 30      24.89535052
  1 16 30      24.89535052
  1 17 30      24.89535052
  1 18 30      24.89535052
  1 19 30      24.89535052
  1 20 30      24.89535052
  1 21 30      24.89535052
  1 22 30      24.89535052
  1 23 30      24.89535052
  1 24 30      24.89535052
  1 25 30      24.89535052
  1 26 30      24.89535052
  1 27 30      24.89535052