BEGIN options
END options

BEGIN dimensions
  NLAY  1
  NROW  30
  NCOL  30
END dimensions

BEGIN griddata
  delr
    CONSTANT      10.00000000
  delc
    CONSTANT      10.00000000
  top
    CONSTANT      30.00000000
  botm
    CONSTANT      23.00000000
  idomain
    CONSTANT  1
END griddata

