BEGIN options
  SAVE_FLOWS
END options

BEGIN dimensions
  MAXBOUND  102
END dimensions

BEGIN period  1
  1 167 64     130.40613505
  1 167 65     128.61345849
  1 167 66     127.33256981
  1 166 66     126.07875635
  1 166 67     123.73042132
  1 166 68     121.34128093
  1 165 71     111.17294895
  1 164 71     108.81876098
  1 164 72     107.62413682
  1 163 72     106.33682903
  1 162 72     104.04131569
  1 162 73     101.81459914
  1 162 74      99.46567494
  1 162 75      97.13127941
  1 162 76      94.79222481
  1 162 77      92.45651164
  1 162 78      90.12606730
  1 162 79      87.77879646
  1 161 80      84.94278667
  1 161 81      82.81114127
  1 160 81      81.32965666
  1 160 82      79.61134501
  1 159 82      78.05394305
  1 156 92      57.60689929
  1 153 91      55.10346111
  1 153 92      54.49713972
  1 152 92      53.61499932
  1 152 93      52.81917190
  1 151 95      50.33629453
  1 150 95      49.62654500
  1 150 96      48.96027213
  1 149 96      48.20259928
  1 149 97      47.41962376
  1 149 98      46.74162939
  1 148 98      46.10563463
  1 148 99      45.29846775
  1 147 99      44.59918147
  1 147 100      43.85500284
  1 146 100      43.20228848
  1 146 101      42.21291490
  1 146 102      41.07147198
  1 146 103      40.27753235
  1 145 103      39.63947025
  1 145 104      38.97522543
  1 144 104      38.16761573
  1 144 105      37.38759832
  1 143 105      36.76271175
  1 143 106      35.82819285
  1 143 107      35.12442186
  1 142 107      34.48351788
  1 142 108      33.47414150
  1 142 109      32.73194557
  1 141 109      31.89469472
  1 140 109      30.94082813
  1 140 110      30.42750012
  1 139 110      29.72184083
  1 138 110      28.59196420
  1 137 110      27.90955409
  1 137 111      26.19967447
  1 137 112      25.30622868
  1 138 112      24.77089557
  1 138 113      24.08055061
  1 138 114      23.07508542
  1 138 115      22.03313475
  1 138 116      21.39703877
  2 137 116      20.79235897
  1 136 116      19.87211302
  1 136 117      19.37946169
  1 135 117      18.68555632
  1 135 118      18.04343140
  1 134 118      17.52143759
  1 134 119      16.60649727
  1 134 120      15.68080016
  1 134 121      14.74855363
  1 134 122      13.82098778
  1 134 123      12.91210713
  1 134 124      11.98660262
  1 134 125      11.05958387
  1 134 126      10.14866055
  1 134 127       9.23424520
  1 134 128       8.63442153
  1 133 128       8.16525874
  1 133 129       7.37477031
  1 133 130       5.83038947
  1 133 131       5.49241955
  1 133 132       5.14985312
  1 133 133       4.84655771
  1 134 133       4.66055745
  1 134 134       4.41502223
  1 134 135       4.05699705
  1 134 136       3.71645953
  1 134 137       3.37616227
  1 134 138       3.03198033
  1 134 139       2.67949975
  1 134 140       2.32259108
  1 134 141       2.13934542
  1 133 141       1.95597726
  1 133 142       1.60107165
  1 133 143       1.25287911
  1 133 144       1.04516337
  1 132 144       0.87121491
  1 132 145       0.55060439
END period  1

