BEGIN options
  SAVE_FLOWS
END options

BEGIN dimensions
  MAXBOUND  169
END dimensions

BEGIN period  1
  1 105 19     155.54530204
  1 104 22     150.21474849
  1 104 23     148.70438375
  1 104 24     147.01833498
  1 103 24     145.32313212
  1 102 24     143.88983609
  1 102 25     142.95671535
  1 101 26     140.86750683
  1 100 27     138.37407257
  1 100 28     136.81491635
  1 100 29     135.28611201
  1 100 30     134.49936373
  1 99 30     133.72403402
  1 99 31     132.08835207
  1 99 32     130.96938259
  1 98 32     127.94730612
  1 97 32     124.54986485
  2 96 32     124.04758115
  1 96 33     123.48449554
  1 95 33     122.79988070
  1 95 34     122.14215901
  1 94 34     121.56634110
  1 94 35     120.91499917
  2 93 35     120.29377054
  1 93 36     116.78082913
  1 93 37     113.91412323
  1 93 38     112.53762714
  1 93 39     111.56695347
  1 93 40     110.78451161
  1 92 40     110.28659248
  1 92 41     108.15824118
  1 92 42     106.49524477
  1 91 42     105.62513657
  1 91 43     104.00000000
  1 91 44     103.15468016
  1 90 44     102.27601080
  1 90 45     101.10558299
  1 90 46      99.85132735
  1 91 46      99.09719164
  1 91 47      97.73081127
  1 91 48      96.25947778
  1 91 49      94.00000000
  1 91 50      94.00000000
  1 92 50      94.00000000
  1 92 51      94.00000000
  1 92 52      92.71626658
  1 92 53      89.00000000
  1 93 53      89.00000000
  1 93 54      89.00000000
  1 93 55      88.19250019
  1 93 56      86.54665630
  1 93 57      85.58693680
  1 94 57      83.24477807
  1 94 58      81.56152485
  1 94 59      79.00000000
  1 94 60      78.49397282
  1 95 60      77.83932366
  1 95 61      76.99231098
  1 96 61      76.27250960
  1 96 62      75.68342500
  1 96 63      73.17486852
  1 96 64      71.51811240
  1 96 65      68.16666702
  1 96 66      66.51615920
  1 97 66      65.69853793
  1 97 67      64.00000000
  1 96 67      64.00000000
  1 96 68      64.00000000
  1 96 69      64.00000000
  1 96 70      63.21200854
  1 96 71      61.86082410
  1 97 71      61.02731530
  1 97 72      59.00000000
  1 97 73      58.42439090
  1 97 74      57.15807651
  2 97 75      56.43733805
  1 96 75      55.78904637
  1 96 76      53.49411864
  1 96 77      52.47170823
  1 96 78      51.46449048
  1 96 79      50.47220209
  1 96 80      49.00000000
  1 95 80      49.00000000
  1 95 81      49.00000000
  1 95 82      49.00000000
  1 95 83      48.17398529
  1 95 84      46.58716658
  1 94 84      45.73568584
  1 94 85      44.00000000
  1 94 86      43.04792654
  1 94 87      39.69467442
  1 94 88      39.00000000
  1 93 88      39.00000000
  1 93 89      39.00000000
  1 93 90      37.45005105
  2 93 91      34.00000000
  1 92 91      34.00000000
  1 92 92      34.00000000
  1 92 93      34.00000000
  1 91 93      34.00000000
  1 91 94      32.73651422
  1 91 95      29.00000000
  1 91 96      29.00000000
  1 91 97      29.00000000
  1 91 98      29.00000000
  1 91 99      29.00000000
  1 91 100      29.00000000
  1 91 101      29.00000000
  1 90 101      29.00000000
  1 90 102      28.37202335
  1 90 103      27.13436809
  1 90 104      26.11232230
  1 89 104      25.49850361
  1 89 105      23.50562344
  1 89 106      22.51835132
  1 89 107      21.96163537
  1 88 107      21.47430984
  1 88 108      20.51570422
  1 88 109      19.90116143
  1 87 109      18.67436368
  1 87 110      17.97795459
  1 87 111      17.22511365
  1 87 112      16.79236220
  1 86 112      16.40321307
  1 86 113      15.68106342
  1 86 114      14.92961924
  1 86 115      14.44981953
  1 85 115      14.05191127
  1 85 116      12.79432587
  1 85 117      12.38970227
  1 85 118      11.99116789
  1 85 119      11.58458506
  1 85 120      11.29427408
  1 86 120      11.09086307
  1 86 121      10.77349402
  1 86 122      10.38225246
  1 86 123       9.99065440
  1 86 124       9.63603819
  1 85 124       9.44109333
  1 85 125       9.21886821
  1 86 125       9.02298310
  1 86 126       8.81056395
  1 86 127       8.41406129
  1 86 128       8.02243259
  1 86 129       7.70761950
  1 85 129       7.49695455
  1 85 130       7.20828565
  1 85 131       6.80604548
  1 85 132       6.57347282
  1 86 132       6.31950009
  1 86 133       6.03199375
  1 87 133       5.79380681
  1 87 134       5.41817014
  1 87 135       5.07753565
  1 86 135       4.83005704
  1 86 136       4.58413411
  1 85 136       4.28253951
  1 85 137       3.92568927
  1 85 138       3.52399060
  1 85 139       3.29662200
  1 86 139       3.06390035
  1 86 140       2.73169759
  1 87 140       2.48402426
  1 87 141       2.13985933
  1 87 142       1.70172281
  1 87 143       1.37227678
  1 86 143       1.14156099
  1 86 144       0.81083039
  1 85 144       0.55251590
END period  1

