pcf
* control data
             restart          estimation
         0       122         0         0       122         0
         0         2              single               point         1         0         0          noobsreref
   2.000000E+01  -3.000000E+00   3.000000E-01   1.000000E-02        -7       999          lamforgive        noderforgive
   1.000000E+01   1.000000E+01   1.000000E-03         0         0
   1.000000E-01         1   1.100000E+00               noaui          nosenreuse        noboundscale
        30   1.000000E-02         3         3   1.000000E-02         3   0.000000E+00         1  -1.000000E+00
         0         0         0         0             jcosave          verboserec          jcosaveitn          reisaveitn          parsaveitn        noparsaverun
* singular value decomposition
         1
  10000000    1.000000E-06
1
* parameter groups
* parameter data
* observation groups
pc_usecol:3_101_59   
pc_usecol:3_102_22   
pc_usecol:3_102_28   
pc_usecol:3_103_32   
pc_usecol:3_104_74   
pc_usecol:3_108_42   
pc_usecol:3_109_12   
pc_usecol:3_111_42   
pc_usecol:3_112_61   
pc_usecol:3_113_102  
pc_usecol:3_114_114  
pc_usecol:3_116_1    
pc_usecol:3_116_59   
pc_usecol:3_119_43   
pc_usecol:3_120_123  
pc_usecol:3_122_94   
pc_usecol:3_125_75   
pc_usecol:3_129_100  
pc_usecol:3_129_86   
pc_usecol:3_132_50   
pc_usecol:3_136_70   
pc_usecol:3_140_74   
pc_usecol:3_140_89   
pc_usecol:3_141_114  
pc_usecol:3_148_98   
pc_usecol:3_50_94    
pc_usecol:3_57_83    
pc_usecol:3_62_126   
pc_usecol:3_63_94    
pc_usecol:3_63_99    
pc_usecol:3_64_92    
pc_usecol:3_64_96    
pc_usecol:3_66_128   
pc_usecol:3_69_104   
pc_usecol:3_69_118   
pc_usecol:3_71_72    
pc_usecol:3_75_124   
pc_usecol:3_79_66    
pc_usecol:3_79_77    
pc_usecol:3_82_115   
pc_usecol:3_83_67    
pc_usecol:3_84_125   
pc_usecol:3_84_94    
pc_usecol:3_91_101   
pc_usecol:3_95_128   
pc_usecol:3_98_43    
pc_usecol:3_98_91    
pc_usecol:3_99_118   
quat_usecol:1_100_51 
quat_usecol:1_100_75 
quat_usecol:1_101_53 
quat_usecol:1_102_24 
quat_usecol:1_102_57 
quat_usecol:1_103_32 
quat_usecol:1_104_45 
quat_usecol:1_106_17 
quat_usecol:1_106_58 
quat_usecol:1_106_71 
quat_usecol:1_108_24 
quat_usecol:1_108_43 
quat_usecol:1_110_22 
quat_usecol:1_112_16 
quat_usecol:1_112_61 
quat_usecol:1_114_13 
quat_usecol:1_114_6  
quat_usecol:1_115_66 
quat_usecol:1_116_100 
quat_usecol:1_116_60 
quat_usecol:1_120_112 
quat_usecol:1_121_104 
quat_usecol:1_121_82 
quat_usecol:1_131_65 
quat_usecol:1_135_119 
quat_usecol:1_137_73 
quat_usecol:1_138_116 
quat_usecol:1_139_122 
quat_usecol:1_142_116 
quat_usecol:1_143_107 
quat_usecol:1_146_106 
quat_usecol:1_147_91 
quat_usecol:1_147_97 
quat_usecol:1_149_129 
quat_usecol:1_152_94 
quat_usecol:1_153_111 
quat_usecol:1_153_113 
quat_usecol:1_153_124 
quat_usecol:1_154_126 
quat_usecol:1_155_123 
quat_usecol:1_155_131 
quat_usecol:1_156_96 
quat_usecol:1_156_99 
quat_usecol:1_165_101 
quat_usecol:1_167_59 
quat_usecol:1_167_66 
quat_usecol:1_56_126 
quat_usecol:1_63_117 
quat_usecol:1_64_104 
quat_usecol:1_64_111 
quat_usecol:1_67_110 
quat_usecol:1_67_119 
quat_usecol:1_68_71  
quat_usecol:1_69_105 
quat_usecol:1_69_116 
quat_usecol:1_70_73  
quat_usecol:1_73_83  
quat_usecol:1_74_115 
quat_usecol:1_76_89  
quat_usecol:1_80_103 
quat_usecol:1_83_106 
quat_usecol:1_83_124 
quat_usecol:1_83_95  
quat_usecol:1_84_127 
quat_usecol:1_88_110 
quat_usecol:1_92_93  
quat_usecol:1_93_114 
quat_usecol:1_94_103 
quat_usecol:1_94_115 
quat_usecol:1_94_95  
quat_usecol:1_95_75  
quat_usecol:1_95_81  
quat_usecol:1_95_95  
quat_usecol:1_99_44  
* observation data
    pc_usecol:3_101_59_time:1.0  5.9790000000E+01      1.0000000000E+00        pc_usecol:3_101_59   
    pc_usecol:3_102_22_time:1.0  1.1643000000E+02      1.0000000000E+00        pc_usecol:3_102_22   
    pc_usecol:3_102_28_time:1.0  1.0845000000E+02      1.0000000000E+00        pc_usecol:3_102_28   
    pc_usecol:3_103_32_time:1.0  1.0233000000E+02      1.0000000000E+00        pc_usecol:3_103_32   
    pc_usecol:3_104_74_time:1.0  4.8990000000E+01      1.0000000000E+00        pc_usecol:3_104_74   
    pc_usecol:3_108_42_time:1.0  9.3210000000E+01      1.0000000000E+00        pc_usecol:3_108_42   
    pc_usecol:3_109_12_time:1.0  1.4239000000E+02      1.0000000000E+00        pc_usecol:3_109_12   
    pc_usecol:3_111_42_time:1.0  9.9200000000E+01      1.0000000000E+00        pc_usecol:3_111_42   
    pc_usecol:3_112_61_time:1.0  6.9690000000E+01      1.0000000000E+00        pc_usecol:3_112_61   
   pc_usecol:3_113_102_time:1.0  9.2700000000E+00      1.0000000000E+00        pc_usecol:3_113_102  
   pc_usecol:3_114_114_time:1.0  3.7200000000E+00      1.0000000000E+00        pc_usecol:3_114_114  
     pc_usecol:3_116_1_time:1.0  1.7961000000E+02      1.0000000000E+00        pc_usecol:3_116_1    
    pc_usecol:3_116_59_time:1.0  7.6130000000E+01      1.0000000000E+00        pc_usecol:3_116_59   
    pc_usecol:3_119_43_time:1.0  1.0107000000E+02      1.0000000000E+00        pc_usecol:3_119_43   
   pc_usecol:3_120_123_time:1.0  2.0100000000E+00      1.0000000000E+00        pc_usecol:3_120_123  
    pc_usecol:3_122_94_time:1.0  1.2340000000E+01      1.0000000000E+00        pc_usecol:3_122_94   
    pc_usecol:3_125_75_time:1.0  5.5560000000E+01      1.0000000000E+00        pc_usecol:3_125_75   
   pc_usecol:3_129_100_time:1.0  1.0710000000E+01      1.0000000000E+00        pc_usecol:3_129_100  
    pc_usecol:3_129_86_time:1.0  2.6750000000E+01      1.0000000000E+00        pc_usecol:3_129_86   
    pc_usecol:3_132_50_time:1.0  1.0487000000E+02      1.0000000000E+00        pc_usecol:3_132_50   
    pc_usecol:3_136_70_time:1.0  7.9970000000E+01      1.0000000000E+00        pc_usecol:3_136_70   
    pc_usecol:3_140_74_time:1.0  6.4820000000E+01      1.0000000000E+00        pc_usecol:3_140_74   
    pc_usecol:3_140_89_time:1.0  2.8150000000E+01      1.0000000000E+00        pc_usecol:3_140_89   
   pc_usecol:3_141_114_time:1.0  8.4800000000E+00      1.0000000000E+00        pc_usecol:3_141_114  
    pc_usecol:3_148_98_time:1.0  2.4660000000E+01      1.0000000000E+00        pc_usecol:3_148_98   
     pc_usecol:3_50_94_time:1.0  9.8500000000E+00      1.0000000000E+00        pc_usecol:3_50_94    
     pc_usecol:3_57_83_time:1.0  2.7280000000E+01      1.0000000000E+00        pc_usecol:3_57_83    
    pc_usecol:3_62_126_time:1.0  1.3200000000E+00      1.0000000000E+00        pc_usecol:3_62_126   
     pc_usecol:3_63_94_time:1.0  5.9200000000E+00      1.0000000000E+00        pc_usecol:3_63_94    
     pc_usecol:3_63_99_time:1.0  6.4800000000E+00      1.0000000000E+00        pc_usecol:3_63_99    
     pc_usecol:3_64_92_time:1.0  1.2220000000E+01      1.0000000000E+00        pc_usecol:3_64_92    
     pc_usecol:3_64_96_time:1.0  5.4500000000E+00      1.0000000000E+00        pc_usecol:3_64_96    
    pc_usecol:3_66_128_time:1.0  1.3150000000E+00      1.0000000000E+00        pc_usecol:3_66_128   
    pc_usecol:3_69_104_time:1.0  3.8000000000E+00      1.0000000000E+00        pc_usecol:3_69_104   
    pc_usecol:3_69_118_time:1.0  2.3500000000E+00      1.0000000000E+00        pc_usecol:3_69_118   
     pc_usecol:3_71_72_time:1.0  3.0670000000E+01      1.0000000000E+00        pc_usecol:3_71_72    
    pc_usecol:3_75_124_time:1.0  2.9000000000E+00      1.0000000000E+00        pc_usecol:3_75_124   
     pc_usecol:3_79_66_time:1.0  6.4230000000E+01      1.0000000000E+00        pc_usecol:3_79_66    
     pc_usecol:3_79_77_time:1.0  2.7900000000E+01      1.0000000000E+00        pc_usecol:3_79_77    
    pc_usecol:3_82_115_time:1.0  3.3700000000E+00      1.0000000000E+00        pc_usecol:3_82_115   
     pc_usecol:3_83_67_time:1.0  4.5340000000E+01      1.0000000000E+00        pc_usecol:3_83_67    
    pc_usecol:3_84_125_time:1.0  5.1000000000E-01      1.0000000000E+00        pc_usecol:3_84_125   
     pc_usecol:3_84_94_time:1.0  1.0400000000E+01      1.0000000000E+00        pc_usecol:3_84_94    
    pc_usecol:3_91_101_time:1.0  1.1800000000E+01      1.0000000000E+00        pc_usecol:3_91_101   
    pc_usecol:3_95_128_time:1.0  1.5000000000E+00      1.0000000000E+00        pc_usecol:3_95_128   
     pc_usecol:3_98_43_time:1.0  8.2870000000E+01      1.0000000000E+00        pc_usecol:3_98_43    
     pc_usecol:3_98_91_time:1.0  1.6700000000E+01      1.0000000000E+00        pc_usecol:3_98_91    
    pc_usecol:3_99_118_time:1.0  2.9000000000E+00      1.0000000000E+00        pc_usecol:3_99_118   
  quat_usecol:1_100_51_time:1.0  6.9790000000E+01      1.0000000000E+00        quat_usecol:1_100_51 
  quat_usecol:1_100_75_time:1.0  3.6060000000E+01      1.0000000000E+00        quat_usecol:1_100_75 
  quat_usecol:1_101_53_time:1.0  6.6520000000E+01      1.0000000000E+00        quat_usecol:1_101_53 
  quat_usecol:1_102_24_time:1.0  1.1438000000E+02      1.0000000000E+00        quat_usecol:1_102_24 
  quat_usecol:1_102_57_time:1.0  6.0340000000E+01      1.0000000000E+00        quat_usecol:1_102_57 
  quat_usecol:1_103_32_time:1.0  1.0413000000E+02      1.0000000000E+00        quat_usecol:1_103_32 
  quat_usecol:1_104_45_time:1.0  7.7430000000E+01      1.0000000000E+00        quat_usecol:1_104_45 
  quat_usecol:1_106_17_time:1.0  1.2776000000E+02      1.0000000000E+00        quat_usecol:1_106_17 
  quat_usecol:1_106_58_time:1.0  7.3520000000E+01      1.0000000000E+00        quat_usecol:1_106_58 
  quat_usecol:1_106_71_time:1.0  5.5240000000E+01      1.0000000000E+00        quat_usecol:1_106_71 
  quat_usecol:1_108_24_time:1.0  1.2148000000E+02      1.0000000000E+00        quat_usecol:1_108_24 
  quat_usecol:1_108_43_time:1.0  9.5410000000E+01      1.0000000000E+00        quat_usecol:1_108_43 
  quat_usecol:1_110_22_time:1.0  1.2846000000E+02      1.0000000000E+00        quat_usecol:1_110_22 
  quat_usecol:1_112_16_time:1.0  1.4362000000E+02      1.0000000000E+00        quat_usecol:1_112_16 
  quat_usecol:1_112_61_time:1.0  7.3620000000E+01      1.0000000000E+00        quat_usecol:1_112_61 
  quat_usecol:1_114_13_time:1.0  1.5352000000E+02      1.0000000000E+00        quat_usecol:1_114_13 
   quat_usecol:1_114_6_time:1.0  1.7069000000E+02      1.0000000000E+00        quat_usecol:1_114_6  
  quat_usecol:1_115_66_time:1.0  6.8310000000E+01      1.0000000000E+00        quat_usecol:1_115_66 
 quat_usecol:1_116_100_time:1.0  1.5660000000E+01      1.0000000000E+00       quat_usecol:1_116_100 
  quat_usecol:1_116_60_time:1.0  7.5280000000E+01      1.0000000000E+00        quat_usecol:1_116_60 
 quat_usecol:1_120_112_time:1.0  6.4700000000E+00      1.0000000000E+00       quat_usecol:1_120_112 
 quat_usecol:1_121_104_time:1.0  1.1580000000E+01      1.0000000000E+00       quat_usecol:1_121_104 
  quat_usecol:1_121_82_time:1.0  4.1760000000E+01      1.0000000000E+00        quat_usecol:1_121_82 
  quat_usecol:1_131_65_time:1.0  8.0670000000E+01      1.0000000000E+00        quat_usecol:1_131_65 
 quat_usecol:1_135_119_time:1.0  3.4600000000E+00      1.0000000000E+00       quat_usecol:1_135_119 
  quat_usecol:1_137_73_time:1.0  8.6120000000E+01      1.0000000000E+00        quat_usecol:1_137_73 
 quat_usecol:1_138_116_time:1.0  5.4300000000E+00      1.0000000000E+00       quat_usecol:1_138_116 
 quat_usecol:1_139_122_time:1.0  2.4800000000E+00      1.0000000000E+00       quat_usecol:1_139_122 
 quat_usecol:1_142_116_time:1.0  5.6600000000E+00      1.0000000000E+00       quat_usecol:1_142_116 
 quat_usecol:1_143_107_time:1.0  1.6870000000E+01      1.0000000000E+00       quat_usecol:1_143_107 
 quat_usecol:1_146_106_time:1.0  1.9600000000E+01      1.0000000000E+00       quat_usecol:1_146_106 
  quat_usecol:1_147_91_time:1.0  3.4430000000E+01      1.0000000000E+00        quat_usecol:1_147_91 
  quat_usecol:1_147_97_time:1.0  2.4140000000E+01      1.0000000000E+00        quat_usecol:1_147_97 
 quat_usecol:1_149_129_time:1.0  7.9000000000E-01      1.0000000000E+00       quat_usecol:1_149_129 
  quat_usecol:1_152_94_time:1.0  3.9040000000E+01      1.0000000000E+00        quat_usecol:1_152_94 
 quat_usecol:1_153_111_time:1.0  3.1570000000E+01      1.0000000000E+00       quat_usecol:1_153_111 
 quat_usecol:1_153_113_time:1.0  3.1870000000E+01      1.0000000000E+00       quat_usecol:1_153_113 
 quat_usecol:1_153_124_time:1.0  5.9000000000E+00      1.0000000000E+00       quat_usecol:1_153_124 
 quat_usecol:1_154_126_time:1.0  4.9000000000E+00      1.0000000000E+00       quat_usecol:1_154_126 
 quat_usecol:1_155_123_time:1.0  8.5000000000E+00      1.0000000000E+00       quat_usecol:1_155_123 
 quat_usecol:1_155_131_time:1.0  3.8000000000E-01      1.0000000000E+00       quat_usecol:1_155_131 
  quat_usecol:1_156_96_time:1.0  4.9800000000E+01      1.0000000000E+00        quat_usecol:1_156_96 
  quat_usecol:1_156_99_time:1.0  4.4480000000E+01      1.0000000000E+00        quat_usecol:1_156_99 
 quat_usecol:1_165_101_time:1.0  9.6310000000E+01      1.0000000000E+00       quat_usecol:1_165_101 
  quat_usecol:1_167_59_time:1.0  1.1100000000E+02      1.0000000000E+00        quat_usecol:1_167_59 
  quat_usecol:1_167_66_time:1.0  7.5520000000E+01      1.0000000000E+00        quat_usecol:1_167_66 
  quat_usecol:1_56_126_time:1.0  4.6000000000E-01      1.0000000000E+00        quat_usecol:1_56_126 
  quat_usecol:1_63_117_time:1.0  6.8000000000E-01      1.0000000000E+00        quat_usecol:1_63_117 
  quat_usecol:1_64_104_time:1.0  1.7800000000E+00      1.0000000000E+00        quat_usecol:1_64_104 
  quat_usecol:1_64_111_time:1.0  4.6000000000E-01      1.0000000000E+00        quat_usecol:1_64_111 
  quat_usecol:1_67_110_time:1.0  1.7100000000E+00      1.0000000000E+00        quat_usecol:1_67_110 
  quat_usecol:1_67_119_time:1.0  8.3000000000E-01      1.0000000000E+00        quat_usecol:1_67_119 
   quat_usecol:1_68_71_time:1.0  2.3680000000E+01      1.0000000000E+00        quat_usecol:1_68_71  
  quat_usecol:1_69_105_time:1.0  2.7300000000E+00      1.0000000000E+00        quat_usecol:1_69_105 
  quat_usecol:1_69_116_time:1.0  1.4700000000E+00      1.0000000000E+00        quat_usecol:1_69_116 
   quat_usecol:1_70_73_time:1.0  2.7950000000E+01      1.0000000000E+00        quat_usecol:1_70_73  
   quat_usecol:1_73_83_time:1.0  1.9760000000E+01      1.0000000000E+00        quat_usecol:1_73_83  
  quat_usecol:1_74_115_time:1.0  2.4500000000E+00      1.0000000000E+00        quat_usecol:1_74_115 
   quat_usecol:1_76_89_time:1.0  1.3400000000E+01      1.0000000000E+00        quat_usecol:1_76_89  
  quat_usecol:1_80_103_time:1.0  6.9300000000E+00      1.0000000000E+00        quat_usecol:1_80_103 
  quat_usecol:1_83_106_time:1.0  6.8600000000E+00      1.0000000000E+00        quat_usecol:1_83_106 
  quat_usecol:1_83_124_time:1.0  1.3700000000E+00      1.0000000000E+00        quat_usecol:1_83_124 
   quat_usecol:1_83_95_time:1.0  1.5860000000E+01      1.0000000000E+00        quat_usecol:1_83_95  
  quat_usecol:1_84_127_time:1.0  5.9000000000E-01      1.0000000000E+00        quat_usecol:1_84_127 
  quat_usecol:1_88_110_time:1.0  6.2000000000E+00      1.0000000000E+00        quat_usecol:1_88_110 
   quat_usecol:1_92_93_time:1.0  1.7240000000E+01      1.0000000000E+00        quat_usecol:1_92_93  
  quat_usecol:1_93_114_time:1.0  4.9000000000E+00      1.0000000000E+00        quat_usecol:1_93_114 
  quat_usecol:1_94_103_time:1.0  1.0660000000E+01      1.0000000000E+00        quat_usecol:1_94_103 
  quat_usecol:1_94_115_time:1.0  4.1500000000E+00      1.0000000000E+00        quat_usecol:1_94_115 
   quat_usecol:1_94_95_time:1.0  1.6220000000E+01      1.0000000000E+00        quat_usecol:1_94_95  
   quat_usecol:1_95_75_time:1.0  4.0860000000E+01      1.0000000000E+00        quat_usecol:1_95_75  
   quat_usecol:1_95_81_time:1.0  3.1120000000E+01      1.0000000000E+00        quat_usecol:1_95_81  
   quat_usecol:1_95_95_time:1.0  1.6130000000E+01      1.0000000000E+00        quat_usecol:1_95_95  
   quat_usecol:1_99_44_time:1.0  8.1360000000E+01      1.0000000000E+00        quat_usecol:1_99_44  
* model command line
python forward_run.py
* model input/output
.\heads_q.csv.ins .\heads_q.csv
.\heads_pc.csv.ins .\heads_pc.csv
