BEGIN griddata
  strt  LAYERED
    INTERNAL  FACTOR  1.0
       -9998.00000000   -9998.00000000   -9998.00000000   -9998.00000000   -9998.00000000   -9998.00000000   -9998.00000000   -9998.00000000   -9998.00000000   -9998.00000000   -9998.00000000   -9998.00000000   -9998.00000000   -9998.00000000   -9998.00000000   -9998.00000000   -9998.00000000   -9998.00000000   -9998.00000000   -9998.00000000
       -9998.00000000   -9998.00000000   -9998.00000000   -9998.00000000   -9998.00000000   -9998.00000000   -9998.00000000   -9998.00000000   -9998.00000000   -9998.00000000   -9998.00000000   -9998.00000000   -9998.00000000   -9998.00000000   -9998.00000000   -9998.00000000   -9998.00000000   -9998.00000000   -9998.00000000   -9998.00000000
       -9998.00000000   -9998.00000000   -9998.00000000   -9998.00000000   -9998.00000000   -9998.00000000   -9998.00000000   -9998.00000000   -9998.00000000   -9998.00000000   -9998.00000000   -9998.00000000   -9998.00000000   -9998.00000000   -9998.00000000   -9998.00000000   -9998.00000000   -9998.00000000   -9998.00000000   -9998.00000000
       -9998.00000000   -9998.00000000   -9998.00000000   -9998.00000000   -9998.00000000   -9998.00000000   -9998.00000000   -9998.00000000   -9998.00000000   -9998.00000000   -9998.00000000   -9998.00000000   -9998.00000000   -9998.00000000   -9998.00000000   -9998.00000000   -9998.00000000   -9998.00000000   -9998.00000000   -9998.00000000
       -9998.00000000   -9998.00000000   -9998.00000000   -9998.00000000   -9998.00000000   -9998.00000000   -9998.00000000   -9998.00000000   -9998.00000000   -9998.00000000   -9998.00000000   -9998.00000000   -9998.00000000   -9998.00000000   -9998.00000000   -9998.00000000   -9998.00000000   -9998.00000000   -9998.00000000   -9998.00000000
       -9998.00000000   -9998.00000000   -9998.00000000   -9998.00000000   -9998.00000000   -9998.00000000   -9998.00000000   -9998.00000000   -9998.00000000   -9998.00000000   -9998.00000000   -9998.00000000   -9998.00000000   -9998.00000000   -9998.00000000   -9998.00000000   -9998.00000000   -9998.00000000   -9998.00000000   -9998.00000000
       -9998.00000000   -9998.00000000   -9998.00000000   -9998.00000000   -9998.00000000   -9998.00000000   -9998.00000000   -9998.00000000   -9998.00000000   -9998.00000000   -9998.00000000   -9998.00000000   -9998.00000000   -9998.00000000   -9998.00000000   -9998.00000000   -9998.00000000   -9998.00000000   -9998.00000000   -9998.00000000
       -9998.00000000   -9998.00000000   -9998.00000000   -9998.00000000   -9998.00000000   -9998.00000000   -9998.00000000   -9998.00000000   -9998.00000000   -9998.00000000
       -9998.00000000   -9998.00000000   -9998.00000000   -9998.00000000   -9998.00000000   -9998.00000000   -9998.00000000   -9998.00000000   -9998.00000000   -9998.00000000   -9998.00000000   -9998.00000000   -9998.00000000   -9998.00000000   -9998.00000000   -9998.00000000   -9998.00000000   -9998.00000000   -9998.00000000   -9998.00000000
       -9998.00000000   -9998.00000000   -9998.00000000   -9998.00000000   -9998.00000000   -9998.00000000   -9998.00000000   -9998.00000000   -9998.00000000   -9998.00000000   -9998.00000000   -9998.00000000   -9998.00000000   -9998.00000000   -9998.00000000   -9998.00000000   -9998.00000000   -9998.00000000   -9998.00000000   -9998.00000000
       -9998.00000000   -9998.00000000   -9998.00000000   -9998.00000000   -9998.00000000   -9998.00000000   -9998.00000000   -9998.00000000   -9998.00000000   -9998.00000000   -9998.00000000   -9998.00000000   -9998.00000000   -9998.00000000   -9998.00000000   -9998.00000000   -9998.00000000   -9998.00000000   -9998.00000000   -9998.00000000
       -9998.00000000   -9998.00000000   -9998.00000000   -9998.00000000   -9998.00000000   -9998.00000000   -9998.00000000   -9998.00000000   -9998.00000000   -9998.00000000   -9998.00000000   -9998.00000000   -9998.00000000   -9998.00000000   -9998.00000000   -9998.00000000   -9998.00000000   -9998.00000000   -9998.00000000   -9998.00000000
       -9998.00000000   -9998.00000000   -9998.00000000   -9998.00000000   -9998.00000000   -9998.00000000   -9998.00000000   -9998.00000000   -9998.00000000   -9998.00000000   -9998.00000000   -9998.00000000   -9998.00000000   -9998.00000000   -9998.00000000   -9998.00000000   -9998.00000000   -9998.00000000   -9998.00000000   -9998.00000000
       -9998.00000000   -9998.00000000   -9998.00000000   -9998.00000000   -9998.00000000   -9998.00000000   -9998.00000000   -9998.00000000   -9998.00000000   -9998.00000000   -9998.00000000   -9998.00000000   -9998.00000000   -9998.00000000   -9998.00000000   -9998.00000000   -9998.00000000   -9998.00000000   -9998.00000000   -9998.00000000
       -9998.00000000   -9998.00000000   -9998.00000000   -9998.00000000   -9998.00000000   -9998.00000000   -9998.00000000   -9998.00000000   -9998.00000000   -9998.00000000   -9998.00000000   -9998.00000000   -9998.00000000   -9998.00000000   -9998.00000000   -9998.00000000   -9998.00000000   -9998.00000000   -9998.00000000   -9998.00000000
       -9998.00000000   -9998.00000000   -9998.00000000   -9998.00000000   -9998.00000000   -9998.00000000   -9998.00000000   -9998.00000000   -9998.00000000   -9998.00000000
       -9998.00000000   -9998.00000000   -9998.00000000   -9998.00000000   -9998.00000000   -9998.00000000   -9998.00000000   -9998.00000000   -9998.00000000   -9998.00000000   -9998.00000000   -9998.00000000   -9998.00000000   -9998.00000000   -9998.00000000   -9998.00000000   -9998.00000000   -9998.00000000   -9998.00000000   -9998.00000000
       -9998.00000000   -9998.00000000   -9998.00000000   -9998.00000000   -9998.00000000   -9998.00000000   -9998.00000000   -9998.00000000   -9998.00000000   -9998.00000000   -9998.00000000   -9998.00000000   -9998.00000000   -9998.00000000   -9998.00000000   -9998.00000000   -9998.00000000   -9998.00000000   -9998.00000000   -9998.00000000
       -9998.00000000   -9998.00000000   -9998.00000000   -9998.00000000   -9998.00000000   -9998.00000000   -9998.00000000   -9998.00000000   -9998.00000000   -9998.00000000   -9998.00000000   -9998.00000000   -9998.00000000   -9998.00000000   -9998.00000000   -9998.00000000   -9998.00000000   -9998.00000000   -9998.00000000   -9998.00000000
       -9998.00000000   -9998.00000000   -9998.00000000   -9998.00000000   -9998.00000000   -9998.00000000   -9998.00000000   -9998.00000000   -9998.00000000   -9998.00000000   -9998.00000000   -9998.00000000   -9998.00000000   -9998.00000000   -9998.00000000   -9998.00000000   -9998.00000000   -9998.00000000   -9998.00000000   -9998.00000000
       -9998.00000000   -9998.00000000   -9998.00000000   -9998.00000000   -9998.00000000   -9998.00000000   -9998.00000000   -9998.00000000   -9998.00000000   -9998.00000000   -9998.00000000   -9998.00000000   -9998.00000000   -9998.00000000   -9998.00000000   -9998.00000000   -9998.00000000   -9998.00000000   -9998.00000000   -9998.00000000
       -9998.00000000   -9998.00000000   -9998.00000000   -9998.00000000   -9998.00000000   -9998.00000000   -9998.00000000   -9998.00000000   -9998.00000000   -9998.00000000   -9998.00000000   -9998.00000000   -9998.00000000   -9998.00000000   -9998.00000000   -9998.00000000   -9998.00000000   -9998.00000000   -9998.00000000   -9998.00000000
       -9998.00000000   -9998.00000000   -9998.00000000   -9998.00000000   -9998.00000000   -9998.00000000   -9998.00000000   -9998.00000000   -9998.00000000   -9998.00000000   -9998.00000000   -9998.00000000   -9998.00000000   -9998.00000000   -9998.00000000   -9998.00000000   -9998.00000000   -9998.00000000   -9998.00000000   -9998.00000000
       -9998.00000000   -9998.00000000   -9998.00000000   -9998.00000000   -9998.00000000   -9998.00000000   -9998.00000000   -9998.00000000   -9998.00000000   -9998.00000000
       -9998.00000000   -9998.00000000   -9998.00000000   -9998.00000000   -9998.00000000   -9998.00000000   -9998.00000000   -9998.00000000   -9998.00000000   -9998.00000000   -9998.00000000   -9998.00000000   -9998.00000000   -9998.00000000   -9998.00000000   -9998.00000000   -9998.00000000   -9998.00000000   -9998.00000000   -9998.00000000
       -9998.00000000   -9998.00000000   -9998.00000000   -9998.00000000   -9998.00000000   -9998.00000000   -9998.00000000   -9998.00000000   -9998.00000000   -9998.00000000   -9998.00000000   -9998.00000000   -9998.00000000   -9998.00000000   -9998.00000000   -9998.00000000   -9998.00000000   -9998.00000000   -9998.00000000   -9998.00000000
       -9998.00000000   -9998.00000000   -9998.00000000   -9998.00000000   -9998.00000000   -9998.00000000   -9998.00000000   -9998.00000000   -9998.00000000   -9998.00000000   -9998.00000000   -9998.00000000   -9998.00000000   -9998.00000000   -9998.00000000   -9998.00000000   -9998.00000000   -9998.00000000   -9998.00000000   -9998.00000000
       -9998.00000000   -9998.00000000   -9998.00000000   -9998.00000000   -9998.00000000   -9998.00000000   -9998.00000000   -9998.00000000   -9998.00000000   -9998.00000000   -9998.00000000   -9998.00000000   -9998.00000000   -9998.00000000   -9998.00000000   -9998.00000000   -9998.00000000   -9998.00000000   -9998.00000000   -9998.00000000
       -9998.00000000   -9998.00000000   -9998.00000000   -9998.00000000   -9998.00000000   -9998.00000000   -9998.00000000   -9998.00000000   -9998.00000000   -9998.00000000   -9998.00000000   -9998.00000000   -9998.00000000   -9998.00000000   -9998.00000000   -9998.00000000   -9998.00000000   -9998.00000000   -9998.00000000   -9998.00000000
       -9998.00000000   -9998.00000000   -9998.00000000   -9998.00000000   -9998.00000000   -9998.00000000   -9998.00000000   -9998.00000000   -9998.00000000   -9998.00000000   -9998.00000000   -9998.00000000   -9998.00000000   -9998.00000000   -9998.00000000   -9998.00000000   -9998.00000000   -9998.00000000   -9998.00000000   -9998.00000000
       -9998.00000000   -9998.00000000   -9998.00000000   -9998.00000000   -9998.00000000   -9998.00000000   -9998.00000000   -9998.00000000   -9998.00000000   -9998.00000000   -9998.00000000   -9998.00000000   -9998.00000000   -9998.00000000   -9998.00000000   -9998.00000000   -9998.00000000   -9998.00000000   -9998.00000000   -9998.00000000
       -9998.00000000   -9998.00000000   -9998.00000000   -9998.00000000   -9998.00000000   -9998.00000000   -9998.00000000   -9998.00000000   -9998.00000000   -9998.00000000
       -9998.00000000   -9998.00000000   -9998.00000000   -9998.00000000   -9998.00000000   -9998.00000000   -9998.00000000   -9998.00000000   -9998.00000000   -9998.00000000   -9998.00000000   -9998.00000000   -9998.00000000   -9998.00000000   -9998.00000000   -9998.00000000   -9998.00000000   -9998.00000000   -9998.00000000   -9998.00000000
       -9998.00000000   -9998.00000000   -9998.00000000   -9998.00000000   -9998.00000000   -9998.00000000   -9998.00000000   -9998.00000000   -9998.00000000   -9998.00000000   -9998.00000000   -9998.00000000   -9998.00000000   -9998.00000000   -9998.00000000   -9998.00000000   -9998.00000000   -9998.00000000   -9998.00000000   -9998.00000000
       -9998.00000000   -9998.00000000   -9998.00000000   -9998.00000000   -9998.00000000   -9998.00000000   -9998.00000000   -9998.00000000   -9998.00000000   -9998.00000000   -9998.00000000   -9998.00000000   -9998.00000000   -9998.00000000   -9998.00000000   -9998.00000000   -9998.00000000   -9998.00000000   -9998.00000000   -9998.00000000
       -9998.00000000   -9998.00000000   -9998.00000000   -9998.00000000   -9998.00000000   -9998.00000000   -9998.00000000   -9998.00000000   -9998.00000000   -9998.00000000   -9998.00000000   -9998.00000000   -9998.00000000   -9998.00000000   -9998.00000000   -9998.00000000   -9998.00000000   -9998.00000000   -9998.00000000   -9998.00000000
       -9998.00000000   -9998.00000000   -9998.00000000   -9998.00000000   -9998.00000000   -9998.00000000   -9998.00000000   -9998.00000000   -9998.00000000   -9998.00000000   -9998.00000000   -9998.00000000   -9998.00000000   -9998.00000000   -9998.00000000   -9998.00000000   -9998.00000000   -9998.00000000   -9998.00000000   -9998.00000000
       -9998.00000000   -9998.00000000   -9998.00000000   -9998.00000000   -9998.00000000   -9998.00000000   -9998.00000000   -9998.00000000   -9998.00000000   -9998.00000000   -9998.00000000   -9998.00000000   -9998.00000000   -9998.00000000   -9998.00000000   -9998.00000000   -9998.00000000   -9998.00000000   -9998.00000000   -9998.00000000
       -9998.00000000   -9998.00000000   -9998.00000000   -9998.00000000   -9998.00000000   -9998.00000000   -9998.00000000   -9998.00000000   -9998.00000000   -9998.00000000   -9998.00000000   -9998.00000000   -9998.00000000   -9998.00000000   -9998.00000000   -9998.00000000   -9998.00000000   -9998.00000000   -9998.00000000   -9998.00000000
       -9998.00000000   -9998.00000000   -9998.00000000   -9998.00000000   -9998.00000000   -9998.00000000   -9998.00000000   -9998.00000000   -9998.00000000   -9998.00000000
       -9998.00000000   -9998.00000000   -9998.00000000   -9998.00000000   -9998.00000000   -9998.00000000   -9998.00000000   -9998.00000000   -9998.00000000   -9998.00000000   -9998.00000000   -9998.00000000   -9998.00000000   -9998.00000000   -9998.00000000   -9998.00000000   -9998.00000000   -9998.00000000   -9998.00000000   -9998.00000000
       -9998.00000000   -9998.00000000   -9998.00000000   -9998.00000000   -9998.00000000   -9998.00000000   -9998.00000000   -9998.00000000   -9998.00000000   -9998.00000000   -9998.00000000   -9998.00000000   -9998.00000000   -9998.00000000   -9998.00000000   -9998.00000000   -9998.00000000   -9998.00000000   -9998.00000000   -9998.00000000
       -9998.00000000   -9998.00000000   -9998.00000000   -9998.00000000   -9998.00000000   -9998.00000000   -9998.00000000   -9998.00000000   -9998.00000000   -9998.00000000   -9998.00000000   -9998.00000000   -9998.00000000   -9998.00000000   -9998.00000000   -9998.00000000   -9998.00000000   -9998.00000000   -9998.00000000   -9998.00000000
       -9998.00000000   -9998.00000000   -9998.00000000   -9998.00000000   -9998.00000000   -9998.00000000   -9998.00000000   -9998.00000000   -9998.00000000   -9998.00000000   -9998.00000000   -9998.00000000   -9998.00000000   -9998.00000000   -9998.00000000   -9998.00000000   -9998.00000000   -9998.00000000   -9998.00000000   -9998.00000000
       -9998.00000000   -9998.00000000   -9998.00000000   -9998.00000000   -9998.00000000   -9998.00000000   -9998.00000000   -9998.00000000   -9998.00000000   -9998.00000000   -9998.00000000   -9998.00000000   -9998.00000000   -9998.00000000   -9998.00000000   -9998.00000000   -9998.00000000   -9998.00000000   -9998.00000000   -9998.00000000
       -9998.00000000   -9998.00000000   -9998.00000000   -9998.00000000   -9998.00000000   -9998.00000000   -9998.00000000   -9998.00000000   -9998.00000000   -9998.00000000   -9998.00000000   -9998.00000000   -9998.00000000   -9998.00000000   -9998.00000000   -9998.00000000   -9998.00000000   -9998.00000000   -9998.00000000   -9998.00000000
       -9998.00000000   -9998.00000000   -9998.00000000   -9998.00000000   -9998.00000000   -9998.00000000   -9998.00000000   -9998.00000000   -9998.00000000   -9998.00000000   -9998.00000000   -9998.00000000   -9998.00000000   -9998.00000000   -9998.00000000   -9998.00000000   -9998.00000000   -9998.00000000   -9998.00000000   -9998.00000000
       -9998.00000000   -9998.00000000   -9998.00000000   -9998.00000000   -9998.00000000   -9998.00000000   -9998.00000000   -9998.00000000   -9998.00000000   -9998.00000000
       -9998.00000000   -9998.00000000   -9998.00000000   -9998.00000000   -9998.00000000   -9998.00000000   -9998.00000000   -9998.00000000   -9998.00000000   -9998.00000000   -9998.00000000   -9998.00000000   -9998.00000000   -9998.00000000   -9998.00000000   -9998.00000000   -9998.00000000   -9998.00000000   -9998.00000000   -9998.00000000
       -9998.00000000   -9998.00000000   -9998.00000000   -9998.00000000   -9998.00000000   -9998.00000000   -9998.00000000   -9998.00000000   -9998.00000000   -9998.00000000   -9998.00000000   -9998.00000000   -9998.00000000   -9998.00000000   -9998.00000000   -9998.00000000   -9998.00000000   -9998.00000000   -9998.00000000   -9998.00000000
       -9998.00000000   -9998.00000000   -9998.00000000   -9998.00000000   -9998.00000000   -9998.00000000   -9998.00000000   -9998.00000000   -9998.00000000   -9998.00000000   -9998.00000000   -9998.00000000   -9998.00000000   -9998.00000000   -9998.00000000   -9998.00000000   -9998.00000000   -9998.00000000   -9998.00000000   -9998.00000000
       -9998.00000000   -9998.00000000   -9998.00000000   -9998.00000000   -9998.00000000   -9998.00000000   -9998.00000000   -9998.00000000   -9998.00000000   -9998.00000000   -9998.00000000   -9998.00000000   -9998.00000000   -9998.00000000   -9998.00000000   -9998.00000000   -9998.00000000   -9998.00000000   -9998.00000000   -9998.00000000
       -9998.00000000   -9998.00000000   -9998.00000000   -9998.00000000   -9998.00000000   -9998.00000000   -9998.00000000   -9998.00000000   -9998.00000000   -9998.00000000   -9998.00000000   -9998.00000000   -9998.00000000   -9998.00000000   -9998.00000000   -9998.00000000   -9998.00000000   -9998.00000000   -9998.00000000   -9998.00000000
       -9998.00000000   -9998.00000000   -9998.00000000   -9998.00000000   -9998.00000000   -9998.00000000   -9998.00000000   -9998.00000000   -9998.00000000   -9998.00000000   -9998.00000000   -9998.00000000   -9998.00000000   -9998.00000000   -9998.00000000   -9998.00000000   -9998.00000000   -9998.00000000   -9998.00000000   -9998.00000000
       -9998.00000000   -9998.00000000   -9998.00000000   -9998.00000000   -9998.00000000   -9998.00000000   -9998.00000000   -9998.00000000   -9998.00000000   -9998.00000000   -9998.00000000   -9998.00000000   -9998.00000000   -9998.00000000   -9998.00000000   -9998.00000000   -9998.00000000   -9998.00000000   -9998.00000000   -9998.00000000
       -9998.00000000   -9998.00000000      46.50000000   -9998.00000000   -9998.00000000   -9998.00000000   -9998.00000000   -9998.00000000   -9998.00000000   -9998.00000000
       -9998.00000000   -9998.00000000   -9998.00000000   -9998.00000000   -9998.00000000   -9998.00000000   -9998.00000000   -9998.00000000   -9998.00000000   -9998.00000000   -9998.00000000   -9998.00000000   -9998.00000000   -9998.00000000   -9998.00000000   -9998.00000000   -9998.00000000   -9998.00000000   -9998.00000000   -9998.00000000
       -9998.00000000   -9998.00000000   -9998.00000000   -9998.00000000   -9998.00000000   -9998.00000000   -9998.00000000   -9998.00000000   -9998.00000000   -9998.00000000   -9998.00000000   -9998.00000000   -9998.00000000   -9998.00000000   -9998.00000000   -9998.00000000   -9998.00000000   -9998.00000000   -9998.00000000   -9998.00000000
       -9998.00000000   -9998.00000000   -9998.00000000   -9998.00000000   -9998.00000000   -9998.00000000   -9998.00000000   -9998.00000000   -9998.00000000   -9998.00000000   -9998.00000000   -9998.00000000   -9998.00000000   -9998.00000000   -9998.00000000   -9998.00000000   -9998.00000000   -9998.00000000   -9998.00000000   -9998.00000000
       -9998.00000000   -9998.00000000   -9998.00000000   -9998.00000000   -9998.00000000   -9998.00000000   -9998.00000000   -9998.00000000   -9998.00000000   -9998.00000000   -9998.00000000   -9998.00000000   -9998.00000000   -9998.00000000   -9998.00000000   -9998.00000000   -9998.00000000   -9998.00000000   -9998.00000000   -9998.00000000
       -9998.00000000   -9998.00000000   -9998.00000000   -9998.00000000   -9998.00000000   -9998.00000000   -9998.00000000   -9998.00000000   -9998.00000000   -9998.00000000   -9998.00000000   -9998.00000000   -9998.00000000   -9998.00000000   -9998.00000000   -9998.00000000   -9998.00000000   -9998.00000000   -9998.00000000   -9998.00000000
       -9998.00000000   -9998.00000000   -9998.00000000   -9998.00000000   -9998.00000000   -9998.00000000   -9998.00000000   -9998.00000000   -9998.00000000   -9998.00000000   -9998.00000000   -9998.00000000   -9998.00000000   -9998.00000000   -9998.00000000   -9998.00000000   -9998.00000000   -9998.00000000   -9998.00000000   -9998.00000000
       -9998.00000000   -9998.00000000   -9998.00000000   -9998.00000000   -9998.00000000   -9998.00000000   -9998.00000000   -9998.00000000   -9998.00000000   -9998.00000000   -9998.00000000   -9998.00000000   -9998.00000000   -9998.00000000   -9998.00000000   -9998.00000000   -9998.00000000   -9998.00000000   -9998.00000000   -9998.00000000
          49.96609879   -9998.00000000   -9998.00000000      50.00000000   -9998.00000000   -9998.00000000   -9998.00000000   -9998.00000000   -9998.00000000   -9998.00000000
       -9998.00000000   -9998.00000000   -9998.00000000   -9998.00000000   -9998.00000000   -9998.00000000   -9998.00000000   -9998.00000000   -9998.00000000   -9998.00000000   -9998.00000000   -9998.00000000   -9998.00000000   -9998.00000000   -9998.00000000   -9998.00000000   -9998.00000000   -9998.00000000   -9998.00000000   -9998.00000000
       -9998.00000000   -9998.00000000   -9998.00000000   -9998.00000000   -9998.00000000   -9998.00000000   -9998.00000000   -9998.00000000   -9998.00000000   -9998.00000000   -9998.00000000   -9998.00000000   -9998.00000000   -9998.00000000   -9998.00000000   -9998.00000000   -9998.00000000   -9998.00000000   -9998.00000000   -9998.00000000
       -9998.00000000   -9998.00000000   -9998.00000000   -9998.00000000   -9998.00000000   -9998.00000000   -9998.00000000   -9998.00000000   -9998.00000000   -9998.00000000   -9998.00000000   -9998.00000000   -9998.00000000   -9998.00000000   -9998.00000000   -9998.00000000   -9998.00000000   -9998.00000000   -9998.00000000   -9998.00000000
       -9998.00000000   -9998.00000000   -9998.00000000   -9998.00000000   -9998.00000000   -9998.00000000   -9998.00000000   -9998.00000000   -9998.00000000   -9998.00000000   -9998.00000000   -9998.00000000   -9998.00000000   -9998.00000000   -9998.00000000   -9998.00000000   -9998.00000000   -9998.00000000   -9998.00000000   -9998.00000000
       -9998.00000000   -9998.00000000   -9998.00000000   -9998.00000000   -9998.00000000   -9998.00000000   -9998.00000000   -9998.00000000   -9998.00000000   -9998.00000000   -9998.00000000   -9998.00000000   -9998.00000000   -9998.00000000   -9998.00000000   -9998.00000000   -9998.00000000   -9998.00000000   -9998.00000000   -9998.00000000
       -9998.00000000   -9998.00000000   -9998.00000000   -9998.00000000   -9998.00000000   -9998.00000000   -9998.00000000   -9998.00000000   -9998.00000000   -9998.00000000   -9998.00000000   -9998.00000000   -9998.00000000   -9998.00000000   -9998.00000000   -9998.00000000   -9998.00000000   -9998.00000000   -9998.00000000   -9998.00000000
       -9998.00000000   -9998.00000000   -9998.00000000   -9998.00000000   -9998.00000000   -9998.00000000   -9998.00000000   -9998.00000000   -9998.00000000   -9998.00000000   -9998.00000000   -9998.00000000   -9998.00000000   -9998.00000000   -9998.00000000   -9998.00000000   -9998.00000000   -9998.00000000   -9998.00000000   -9998.00000000
       -9998.00000000   -9998.00000000   -9998.00000000   -9998.00000000      47.50000000   -9998.00000000   -9998.00000000   -9998.00000000   -9998.00000000   -9998.00000000
       -9998.00000000   -9998.00000000   -9998.00000000   -9998.00000000   -9998.00000000   -9998.00000000   -9998.00000000   -9998.00000000   -9998.00000000   -9998.00000000   -9998.00000000   -9998.00000000   -9998.00000000   -9998.00000000   -9998.00000000   -9998.00000000   -9998.00000000   -9998.00000000   -9998.00000000   -9998.00000000
       -9998.00000000   -9998.00000000   -9998.00000000   -9998.00000000   -9998.00000000   -9998.00000000   -9998.00000000   -9998.00000000   -9998.00000000   -9998.00000000   -9998.00000000   -9998.00000000   -9998.00000000   -9998.00000000   -9998.00000000   -9998.00000000   -9998.00000000   -9998.00000000   -9998.00000000   -9998.00000000
       -9998.00000000   -9998.00000000   -9998.00000000   -9998.00000000   -9998.00000000   -9998.00000000   -9998.00000000   -9998.00000000   -9998.00000000   -9998.00000000   -9998.00000000   -9998.00000000   -9998.00000000   -9998.00000000   -9998.00000000   -9998.00000000   -9998.00000000   -9998.00000000   -9998.00000000   -9998.00000000
       -9998.00000000   -9998.00000000   -9998.00000000   -9998.00000000   -9998.00000000   -9998.00000000   -9998.00000000   -9998.00000000   -9998.00000000   -9998.00000000   -9998.00000000   -9998.00000000   -9998.00000000   -9998.00000000   -9998.00000000   -9998.00000000   -9998.00000000   -9998.00000000   -9998.00000000   -9998.00000000
       -9998.00000000   -9998.00000000   -9998.00000000   -9998.00000000   -9998.00000000   -9998.00000000   -9998.00000000   -9998.00000000   -9998.00000000   -9998.00000000   -9998.00000000   -9998.00000000   -9998.00000000   -9998.00000000   -9998.00000000   -9998.00000000   -9998.00000000   -9998.00000000   -9998.00000000   -9998.00000000
       -9998.00000000   -9998.00000000   -9998.00000000   -9998.00000000   -9998.00000000   -9998.00000000   -9998.00000000   -9998.00000000   -9998.00000000   -9998.00000000   -9998.00000000   -9998.00000000   -9998.00000000   -9998.00000000   -9998.00000000   -9998.00000000   -9998.00000000   -9998.00000000   -9998.00000000   -9998.00000000
       -9998.00000000   -9998.00000000   -9998.00000000   -9998.00000000   -9998.00000000   -9998.00000000   -9998.00000000   -9998.00000000   -9998.00000000   -9998.00000000   -9998.00000000   -9998.00000000   -9998.00000000   -9998.00000000   -9998.00000000   -9998.00000000   -9998.00000000   -9998.00000000   -9998.00000000   -9998.00000000
       -9998.00000000   -9998.00000000   -9998.00000000   -9998.00000000   -9998.00000000   -9998.00000000   -9998.00000000   -9998.00000000   -9998.00000000   -9998.00000000
       -9998.00000000   -9998.00000000   -9998.00000000   -9998.00000000   -9998.00000000   -9998.00000000   -9998.00000000   -9998.00000000   -9998.00000000   -9998.00000000   -9998.00000000   -9998.00000000   -9998.00000000   -9998.00000000   -9998.00000000   -9998.00000000   -9998.00000000   -9998.00000000   -9998.00000000   -9998.00000000
       -9998.00000000   -9998.00000000   -9998.00000000   -9998.00000000   -9998.00000000   -9998.00000000   -9998.00000000   -9998.00000000   -9998.00000000   -9998.00000000   -9998.00000000   -9998.00000000   -9998.00000000   -9998.00000000   -9998.00000000   -9998.00000000   -9998.00000000   -9998.00000000   -9998.00000000   -9998.00000000
       -9998.00000000   -9998.00000000   -9998.00000000   -9998.00000000   -9998.00000000   -9998.00000000   -9998.00000000   -9998.00000000   -9998.00000000   -9998.00000000   -9998.00000000   -9998.00000000   -9998.00000000   -9998.00000000   -9998.00000000   -9998.00000000   -9998.00000000   -9998.00000000   -9998.00000000   -9998.00000000
       -9998.00000000   -9998.00000000   -9998.00000000   -9998.00000000   -9998.00000000   -9998.00000000   -9998.00000000   -9998.00000000   -9998.00000000   -9998.00000000   -9998.00000000   -9998.00000000   -9998.00000000   -9998.00000000   -9998.00000000   -9998.00000000   -9998.00000000   -9998.00000000   -9998.00000000   -9998.00000000
       -9998.00000000   -9998.00000000   -9998.00000000   -9998.00000000   -9998.00000000   -9998.00000000   -9998.00000000   -9998.00000000   -9998.00000000   -9998.00000000   -9998.00000000   -9998.00000000   -9998.00000000   -9998.00000000   -9998.00000000   -9998.00000000   -9998.00000000   -9998.00000000   -9998.00000000   -9998.00000000
       -9998.00000000   -9998.00000000   -9998.00000000   -9998.00000000   -9998.00000000   -9998.00000000   -9998.00000000   -9998.00000000   -9998.00000000   -9998.00000000   -9998.00000000   -9998.00000000   -9998.00000000   -9998.00000000   -9998.00000000   -9998.00000000   -9998.00000000   -9998.00000000   -9998.00000000   -9998.00000000
       -9998.00000000   -9998.00000000   -9998.00000000   -9998.00000000   -9998.00000000   -9998.00000000   -9998.00000000   -9998.00000000   -9998.00000000   -9998.00000000   -9998.00000000   -9998.00000000   -9998.00000000   -9998.00000000   -9998.00000000   -9998.00000000   -9998.00000000   -9998.00000000   -9998.00000000   -9998.00000000
       -9998.00000000   -9998.00000000   -9998.00000000      43.00000000   -9998.00000000   -9998.00000000   -9998.00000000   -9998.00000000   -9998.00000000   -9998.00000000
       -9998.00000000   -9998.00000000   -9998.00000000   -9998.00000000   -9998.00000000   -9998.00000000   -9998.00000000   -9998.00000000   -9998.00000000   -9998.00000000   -9998.00000000   -9998.00000000   -9998.00000000   -9998.00000000   -9998.00000000   -9998.00000000   -9998.00000000   -9998.00000000   -9998.00000000   -9998.00000000
       -9998.00000000   -9998.00000000   -9998.00000000   -9998.00000000   -9998.00000000   -9998.00000000   -9998.00000000   -9998.00000000   -9998.00000000   -9998.00000000   -9998.00000000   -9998.00000000   -9998.00000000   -9998.00000000   -9998.00000000   -9998.00000000   -9998.00000000   -9998.00000000   -9998.00000000   -9998.00000000
       -9998.00000000   -9998.00000000   -9998.00000000   -9998.00000000   -9998.00000000   -9998.00000000   -9998.00000000   -9998.00000000   -9998.00000000   -9998.00000000   -9998.00000000   -9998.00000000   -9998.00000000   -9998.00000000   -9998.00000000   -9998.00000000   -9998.00000000   -9998.00000000   -9998.00000000   -9998.00000000
       -9998.00000000   -9998.00000000   -9998.00000000   -9998.00000000   -9998.00000000   -9998.00000000   -9998.00000000   -9998.00000000   -9998.00000000   -9998.00000000   -9998.00000000   -9998.00000000   -9998.00000000   -9998.00000000   -9998.00000000   -9998.00000000   -9998.00000000   -9998.00000000   -9998.00000000   -9998.00000000