BEGIN options
  SAVE_FLOWS
  SAVE_SPECIFIC_DISCHARGE
END options

BEGIN griddata
  icelltype
    CONSTANT  0
  k
    INTERNAL  FACTOR  1.0
      3.80000000E-04  3.80000000E-04  3.80000000E-04  3.80000000E-04  3.80000000E-04  3.80000000E-04  3.80000000E-04  3.80000000E-04  3.80000000E-04  3.80000000E-04  3.80000000E-04  3.80000000E-04  3.80000000E-04  3.80000000E-04  3.80000000E-04  3.80000000E-04  3.80000000E-04  3.80000000E-04  3.80000000E-04  3.80000000E-04
      3.80000000E-04  3.80000000E-04  3.80000000E-04  3.80000000E-04  3.80000000E-04  3.80000000E-04  3.80000000E-04  3.80000000E-04  3.80000000E-04  3.80000000E-04  3.80000000E-04  3.80000000E-04  3.80000000E-04  3.80000000E-04  3.80000000E-04  3.80000000E-04  3.80000000E-04  3.80000000E-04  3.80000000E-04  3.80000000E-04
      3.80000000E-04  3.80000000E-04  3.80000000E-04  3.80000000E-04  3.80000000E-04  3.80000000E-04  3.80000000E-04  3.80000000E-04  3.80000000E-04  3.80000000E-04  3.80000000E-04  3.80000000E-04  3.80000000E-04  3.80000000E-04  3.80000000E-04  3.80000000E-04  3.80000000E-04  3.80000000E-04  3.80000000E-04  3.80000000E-04
      3.80000000E-04  3.80000000E-04  3.80000000E-04  3.80000000E-04  3.80000000E-04  3.80000000E-04  3.80000000E-04  3.80000000E-04  3.80000000E-04  3.80000000E-04  3.80000000E-04  3.80000000E-04  3.80000000E-04  3.80000000E-04  3.80000000E-04  3.80000000E-04  3.80000000E-04  3.80000000E-04  3.80000000E-04  3.80000000E-04
      3.80000000E-04  3.80000000E-04  3.80000000E-04  3.80000000E-04  3.80000000E-04  3.80000000E-04  3.80000000E-04  3.80000000E-04  3.80000000E-04  3.80000000E-04  3.80000000E-04  3.80000000E-04  3.80000000E-04  3.80000000E-04  3.80000000E-04  3.80000000E-04  3.80000000E-04  3.80000000E-04  3.80000000E-04  3.80000000E-04
      3.80000000E-04  3.80000000E-04  3.80000000E-04  3.80000000E-04  3.80000000E-04  3.80000000E-04  3.80000000E-04  3.80000000E-04  3.80000000E-04  3.80000000E-04  3.80000000E-04  3.80000000E-04  3.80000000E-04  3.80000000E-04  3.80000000E-04  3.80000000E-04  3.80000000E-04  3.80000000E-04  3.80000000E-04  3.80000000E-04
      3.80000000E-04  3.80000000E-04  3.80000000E-04  3.80000000E-04  3.80000000E-04  3.80000000E-04  3.80000000E-04  3.80000000E-04  3.80000000E-04  3.80000000E-04  3.80000000E-04  3.80000000E-04  3.80000000E-04  3.80000000E-04  3.80000000E-04  3.80000000E-04  3.80000000E-04  3.80000000E-04  3.80000000E-04  3.80000000E-04
      3.80000000E-04  3.80000000E-04  3.80000000E-04  3.80000000E-04  3.80000000E-04  3.80000000E-04  3.80000000E-04  3.80000000E-04  3.80000000E-04  3.80000000E-04  3.80000000E-04  3.80000000E-04  3.80000000E-04  3.80000000E-04  3.80000000E-04  3.80000000E-04  3.80000000E-04  3.80000000E-04  3.80000000E-04  3.80000000E-04
      3.80000000E-04  3.80000000E-04  3.80000000E-04  3.80000000E-04  3.80000000E-04  3.80000000E-04  3.80000000E-04  3.80000000E-04  3.80000000E-04  3.80000000E-04  3.80000000E-04  3.80000000E-04  3.80000000E-04  3.80000000E-04  3.80000000E-04  3.80000000E-04  3.80000000E-04  3.80000000E-04  3.80000000E-04  3.80000000E-04
      3.80000000E-04  3.80000000E-04  3.80000000E-04  3.80000000E-04  3.80000000E-04  3.80000000E-04  3.80000000E-04  3.80000000E-04  3.80000000E-04  3.80000000E-04  3.80000000E-04  3.80000000E-04  3.80000000E-04  3.80000000E-04  3.80000000E-04  3.80000000E-04  3.80000000E-04  3.80000000E-04  3.80000000E-04  3.80000000E-04
      3.80000000E-04  3.80000000E-04  3.80000000E-04  3.80000000E-04  3.80000000E-04  3.80000000E-04  3.80000000E-04  3.80000000E-04  3.80000000E-04  3.80000000E-04  3.80000000E-04  3.80000000E-04  3.80000000E-04  3.80000000E-04  3.80000000E-04  3.80000000E-04  3.80000000E-04  3.80000000E-04  3.80000000E-04  3.80000000E-04
      3.80000000E-04  3.80000000E-04  3.80000000E-04  3.80000000E-04  3.80000000E-04  3.80000000E-04  3.80000000E-04  3.80000000E-04  3.80000000E-04  3.80000000E-04  3.80000000E-04  3.80000000E-04  3.80000000E-04  3.80000000E-04  3.80000000E-04  3.80000000E-04  3.80000000E-04  3.80000000E-04  3.80000000E-04  3.80000000E-04
      3.80000000E-04  3.80000000E-04  3.80000000E-04  3.80000000E-04  3.80000000E-04  3.80000000E-04  3.80000000E-04  3.80000000E-04  3.80000000E-04  3.80000000E-04  3.80000000E-04  3.80000000E-04  3.80000000E-04  3.80000000E-04  3.80000000E-04  3.80000000E-04  3.80000000E-04  3.80000000E-04  3.80000000E-04  3.80000000E-04
      3.80000000E-04  3.80000000E-04  3.80000000E-04  3.80000000E-04  3.80000000E-04  3.80000000E-04  3.80000000E-04  3.80000000E-04  3.80000000E-04  3.80000000E-04  3.80000000E-04  3.80000000E-04  3.80000000E-04  3.80000000E-04  3.80000000E-04  3.80000000E-04  3.80000000E-04  3.80000000E-04  3.80000000E-04  3.80000000E-04
      3.80000000E-04  3.80000000E-04  3.80000000E-04  3.80000000E-04  3.80000000E-04  3.80000000E-04  3.80000000E-04  3.80000000E-04  3.80000000E-04  3.80000000E-04  3.80000000E-04  3.80000000E-04  3.80000000E-04  3.80000000E-04  3.80000000E-04  3.80000000E-04  3.80000000E-04  3.80000000E-04  3.80000000E-04  3.80000000E-04
      3.80000000E-04  3.80000000E-04  3.80000000E-04  3.80000000E-04  3.80000000E-04  3.80000000E-04  3.80000000E-04  3.80000000E-04  3.80000000E-04  3.80000000E-04  3.80000000E-04  3.80000000E-04  3.80000000E-04  3.80000000E-04  3.80000000E-04  3.80000000E-04  3.80000000E-04  3.80000000E-04  3.80000000E-04  3.80000000E-04
      3.80000000E-04  3.80000000E-04  3.80000000E-04  3.80000000E-04  3.80000000E-04  3.80000000E-04  3.80000000E-04  3.80000000E-04  3.80000000E-04  3.80000000E-04  3.80000000E-04  3.80000000E-04  3.80000000E-04  3.80000000E-04  3.80000000E-04  3.80000000E-04  3.80000000E-04  3.80000000E-04  3.80000000E-04  3.80000000E-04
      3.80000000E-04  3.80000000E-04  3.80000000E-04  3.80000000E-04  3.80000000E-04  3.80000000E-04  3.80000000E-04  3.80000000E-04  3.80000000E-04  3.80000000E-04  3.80000000E-04  3.80000000E-04  3.80000000E-04  3.80000000E-04  3.80000000E-04  3.80000000E-04  3.80000000E-04  3.80000000E-04  3.80000000E-04  3.80000000E-04
      3.80000000E-04  3.80000000E-04  3.80000000E-04  3.80000000E-04  3.80000000E-04  3.80000000E-04  3.80000000E-04  3.80000000E-04  3.80000000E-04  3.80000000E-04  3.80000000E-04  3.80000000E-04  3.80000000E-04  3.80000000E-04  3.80000000E-04  3.80000000E-04  3.80000000E-04  3.80000000E-04  3.80000000E-04  3.80000000E-04
      3.80000000E-04  3.80000000E-04  3.80000000E-04  3.80000000E-04  3.80000000E-04  3.80000000E-04  3.80000000E-04  3.80000000E-04  3.80000000E-04  3.80000000E-04  3.80000000E-04  3.80000000E-04  3.80000000E-04  3.80000000E-04  3.80000000E-04  3.80000000E-04  3.80000000E-04  3.80000000E-04  3.80000000E-04  3.80000000E-04
      3.80000000E-04  3.80000000E-04  3.80000000E-04  3.80000000E-04  3.80000000E-04  3.80000000E-04  3.80000000E-04  3.80000000E-04  3.80000000E-04  3.80000000E-04  3.80000000E-04  3.80000000E-04  3.80000000E-04  3.80000000E-04  3.80000000E-04  3.80000000E-04  3.80000000E-04  3.80000000E-04  3.80000000E-04  3.80000000E-04
      3.80000000E-04  3.80000000E-04  3.80000000E-04  3.80000000E-04  3.80000000E-04  3.80000000E-04  3.80000000E-04  3.80000000E-04  3.80000000E-04  3.80000000E-04  3.80000000E-04  3.80000000E-04  3.80000000E-04  3.80000000E-04  3.80000000E-04  3.80000000E-04  3.80000000E-04  3.80000000E-04  3.80000000E-04  3.80000000E-04
      3.80000000E-04  3.80000000E-04  3.80000000E-04  3.80000000E-04  3.80000000E-04  3.80000000E-04  3.80000000E-04  3.80000000E-04  3.80000000E-04  3.80000000E-04  3.80000000E-04  3.80000000E-04  3.80000000E-04  3.80000000E-04  3.80000000E-04  3.80000000E-04  3.80000000E-04  3.80000000E-04  3.80000000E-04  3.80000000E-04
      3.80000000E-04  3.80000000E-04  3.80000000E-04  3.80000000E-04  3.80000000E-04  3.80000000E-04  3.80000000E-04  3.80000000E-04  3.80000000E-04  3.80000000E-04  3.80000000E-04  3.80000000E-04  3.80000000E-04  3.80000000E-04  3.80000000E-04  3.80000000E-04  3.80000000E-04  3.80000000E-04  3.80000000E-04  3.80000000E-04
      3.80000000E-04  3.80000000E-04  3.80000000E-04  3.80000000E-04  3.80000000E-04  3.80000000E-04  3.80000000E-04  3.80000000E-04  3.80000000E-04  3.80000000E-04  3.80000000E-04  3.80000000E-04  3.80000000E-04  3.80000000E-04  3.80000000E-04  3.80000000E-04  3.80000000E-04  3.80000000E-04  3.80000000E-04  3.80000000E-04
      3.80000000E-04  3.80000000E-04  3.80000000E-04  3.80000000E-04  3.80000000E-04  3.80000000E-04  3.80000000E-04  3.80000000E-04  3.80000000E-04  3.80000000E-04  3.80000000E-04  3.80000000E-04  3.80000000E-04  3.80000000E-04  3.80000000E-04  3.80000000E-04  3.80000000E-04  3.80000000E-04  3.80000000E-04  3.80000000E-04
      3.80000000E-04  3.80000000E-04  3.80000000E-04  3.80000000E-04  3.80000000E-04  3.80000000E-04  3.80000000E-04  3.80000000E-04  3.80000000E-04  3.80000000E-04  3.80000000E-04  3.80000000E-04  3.80000000E-04  3.80000000E-04  3.80000000E-04  3.80000000E-04  3.80000000E-04  3.80000000E-04  3.80000000E-04  3.80000000E-04
      3.80000000E-04  3.80000000E-04  3.80000000E-04  3.80000000E-04  3.80000000E-04  3.80000000E-04  3.80000000E-04  3.80000000E-04  3.80000000E-04  3.80000000E-04  3.80000000E-04  3.80000000E-04  3.80000000E-04  3.80000000E-04  3.80000000E-04  3.80000000E-04  3.80000000E-04  3.80000000E-04  3.80000000E-04  3.80000000E-04
      3.80000000E-04  3.80000000E-04  3.80000000E-04  3.80000000E-04  3.80000000E-04  3.80000000E-04  3.80000000E-04  3.80000000E-04  3.80000000E-04  3.80000000E-04  3.80000000E-04  3.80000000E-04  3.80000000E-04  3.80000000E-04  3.80000000E-04  3.80000000E-04  3.80000000E-04  3.80000000E-04  3.80000000E-04  3.80000000E-04
      3.80000000E-04  3.80000000E-04  3.80000000E-04  3.80000000E-04  3.80000000E-04  3.80000000E-04  3.80000000E-04  3.80000000E-04  3.80000000E-04  3.80000000E-04  3.80000000E-04  3.80000000E-04  3.80000000E-04  3.80000000E-04  3.80000000E-04  3.80000000E-04  3.80000000E-04  3.80000000E-04  3.80000000E-04  3.80000000E-04
      3.80000000E-04  3.80000000E-04  3.80000000E-04  3.80000000E-04  3.80000000E-04  3.80000000E-04  3.80000000E-04  3.80000000E-04  3.80000000E-04  3.80000000E-04  3.80000000E-04  3.80000000E-04  3.80000000E-04  3.80000000E-04  3.80000000E-04  3.80000000E-04  3.80000000E-04  3.80000000E-04  3.80000000E-04  3.80000000E-04
      3.80000000E-04  3.80000000E-04  3.80000000E-04  3.80000000E-04  3.80000000E-04  3.80000000E-04  3.80000000E-04  3.80000000E-04  3.80000000E-04  3.80000000E-04  3.80000000E-04  3.80000000E-04  3.80000000E-04  3.80000000E-04  3.80000000E-04  3.80000000E-04  3.80000000E-04  3.80000000E-04  3.80000000E-04  3.80000000E-04
      3.80000000E-04  3.80000000E-04  3.80000000E-04  3.80000000E-04  3.80000000E-04  3.80000000E-04  3.80000000E-04  3.80000000E-04  3.80000000E-04  3.80000000E-04  3.80000000E-04  3.80000000E-04  3.80000000E-04  3.80000000E-04  3.80000000E-04  3.80000000E-04  3.80000000E-04  3.80000000E-04  3.80000000E-04  3.80000000E-04
      3.80000000E-04  3.80000000E-04  3.80000000E-04  3.80000000E-04  3.80000000E-04  3.80000000E-04  3.80000000E-04  3.80000000E-04  3.80000000E-04  3.80000000E-04  3.80000000E-04  3.80000000E-04  3.80000000E-04  3.80000000E-04  3.80000000E-04  3.80000000E-04  3.80000000E-04  3.80000000E-04  3.80000000E-04  3.80000000E-04
      3.80000000E-04  3.80000000E-04  3.80000000E-04  3.80000000E-04  3.80000000E-04  3.80000000E-04  3.80000000E-04  3.80000000E-04  3.80000000E-04  3.80000000E-04  3.80000000E-04  3.80000000E-04  3.80000000E-04  3.80000000E-04  3.80000000E-04  3.80000000E-04  3.80000000E-04  3.80000000E-04  3.80000000E-04  3.80000000E-04
      3.80000000E-04  3.80000000E-04  3.80000000E-04  3.80000000E-04  3.80000000E-04  3.80000000E-04  3.80000000E-04  3.80000000E-04  3.80000000E-04  3.80000000E-04  3.80000000E-04  3.80000000E-04  3.80000000E-04  3.80000000E-04  3.80000000E-04  3.80000000E-04  3.80000000E-04  3.80000000E-04  3.80000000E-04  3.80000000E-04
      3.80000000E-04  3.80000000E-04  3.80000000E-04  3.80000000E-04  3.80000000E-04  3.80000000E-04  3.80000000E-04  3.80000000E-04  3.80000000E-04  3.80000000E-04  3.80000000E-04  3.80000000E-04  3.80000000E-04  3.80000000E-04  3.80000000E-04  3.80000000E-04  3.80000000E-04  3.80000000E-04  3.80000000E-04  3.80000000E-04
      3.80000000E-04  3.80000000E-04  3.80000000E-04  3.80000000E-04  3.80000000E-04  3.80000000E-04  3.80000000E-04  3.80000000E-04  3.80000000E-04  3.80000000E-04  3.80000000E-04  3.80000000E-04  3.80000000E-04  3.80000000E-04  3.80000000E-04  3.80000000E-04  3.80000000E-04  3.80000000E-04  3.80000000E-04  3.80000000E-04
      3.80000000E-04  3.80000000E-04  3.80000000E-04  3.80000000E-04  3.80000000E-04  3.80000000E-04  3.80000000E-04  3.80000000E-04  3.80000000E-04  3.80000000E-04  3.80000000E-04  3.80000000E-04  3.80000000E-04  3.80000000E-04  3.80000000E-04  3.80000000E-04  3.80000000E-04  3.80000000E-04  3.80000000E-04  3.80000000E-04
      3.80000000E-04  3.80000000E-04  3.80000000E-04  3.80000000E-04  3.80000000E-04  3.80000000E-04  3.80000000E-04  3.80000000E-04  3.80000000E-04  3.80000000E-04  3.80000000E-04  3.80000000E-04  3.80000000E-04  3.80000000E-04  3.80000000E-04  3.80000000E-04  3.80000000E-04  3.80000000E-04  3.80000000E-04  3.80000000E-04
      3.80000000E-04  3.80000000E-04  3.80000000E-04  3.80000000E-04  3.80000000E-04  3.80000000E-04  3.80000000E-04  3.80000000E-04  3.80000000E-04  3.80000000E-04  3.80000000E-04  3.80000000E-04  3.80000000E-04  3.80000000E-04  3.80000000E-04  3.80000000E-04  3.80000000E-04  3.80000000E-04  3.80000000E-04  3.80000000E-04
      3.80000000E-04  3.80000000E-04  3.80000000E-04  3.80000000E-04  3.80000000E-04  3.80000000E-04  3.80000000E-04  3.80000000E-04  3.80000000E-04  3.80000000E-04  3.80000000E-04  3.80000000E-04  3.80000000E-04  3.80000000E-04  3.80000000E-04  3.80000000E-04  3.80000000E-04  3.80000000E-04  3.80000000E-04  3.80000000E-04
      3.80000000E-04  3.80000000E-04  3.80000000E-04  3.80000000E-04  3.80000000E-04  3.80000000E-04  3.80000000E-04  3.80000000E-04  3.80000000E-04  3.80000000E-04  3.80000000E-04  3.80000000E-04  3.80000000E-04  3.80000000E-04  3.80000000E-04  3.80000000E-04  3.80000000E-04  3.80000000E-04  3.80000000E-04  3.80000000E-04
      3.80000000E-04  3.80000000E-04  3.80000000E-04  3.80000000E-04  3.80000000E-04  3.80000000E-04  3.80000000E-04  3.80000000E-04  3.80000000E-04  3.80000000E-04  3.80000000E-04  3.80000000E-04  3.80000000E-04  3.80000000E-04  3.80000000E-04  3.80000000E-04  3.80000000E-04  3.80000000E-04  3.80000000E-04  3.80000000E-04
      3.80000000E-04  3.80000000E-04  3.80000000E-04  3.80000000E-04  3.80000000E-04  3.80000000E-04  3.80000000E-04  3.80000000E-04  3.80000000E-04  3.80000000E-04  3.80000000E-04  3.80000000E-04  3.80000000E-04  3.80000000E-04  3.80000000E-04  3.80000000E-04  3.80000000E-04  3.80000000E-04  3.80000000E-04  3.80000000E-04
      3.80000000E-04  3.80000000E-04  3.80000000E-04  3.80000000E-04  3.80000000E-04  3.80000000E-04  3.80000000E-04  3.80000000E-04  3.80000000E-04  3.80000000E-04  3.80000000E-04  3.80000000E-04  3.80000000E-04  3.80000000E-04  3.80000000E-04  3.80000000E-04  3.80000000E-04  3.80000000E-04  3.80000000E-04  3.80000000E-04
      3.80000000E-04  3.80000000E-04  3.80000000E-04  3.80000000E-04  3.80000000E-04  3.80000000E-04  3.80000000E-04  3.80000000E-04  3.80000000E-04  3.80000000E-04  3.80000000E-04  3.80000000E-04  3.80000000E-04  3.80000000E-04  3.80000000E-04  3.80000000E-04  3.80000000E-04  3.80000000E-04  3.80000000E-04  3.80000000E-04
      3.80000000E-04  3.80000000E-04  3.80000000E-04  3.80000000E-04  3.80000000E-04  3.80000000E-04  3.80000000E-04  3.80000000E-04  3.80000000E-04  3.80000000E-04  3.80000000E-04  3.80000000E-04  3.80000000E-04  3.80000000E-04  3.80000000E-04  3.80000000E-04  3.80000000E-04  3.80000000E-04  3.80000000E-04  3.80000000E-04
      3.80000000E-04  3.80000000E-04  3.80000000E-04  3.80000000E-04  3.80000000E-04  3.80000000E-04  3.80000000E-04  3.80000000E-04  3.80000000E-04  3.80000000E-04  3.80000000E-04  3.80000000E-04  3.80000000E-04  3.80000000E-04  3.80000000E-04  3.80000000E-04  3.80000000E-04  3.80000000E-04  3.80000000E-04  3.80000000E-04
      3.80000000E-04  3.80000000E-04  3.80000000E-04  3.80000000E-04  3.80000000E-04  3.80000000E-04  3.80000000E-04  3.80000000E-04  3.80000000E-04  3.80000000E-04  3.80000000E-04  3.80000000E-04  3.80000000E-04  3.80000000E-04  3.80000000E-04  3.80000000E-04  3.80000000E-04  3.80000000E-04  3.80000000E-04  3.80000000E-04
      3.80000000E-04  3.80000000E-04  3.80000000E-04  3.80000000E-04  3.80000000E-04  3.80000000E-04  3.80000000E-04  3.80000000E-04  3.80000000E-04  3.80000000E-04  3.80000000E-04  3.80000000E-04  3.80000000E-04  3.80000000E-04  3.80000000E-04  3.80000000E-04  3.80000000E-04  3.80000000E-04  3.80000000E-04  3.80000000E-04
      3.80000000E-04  3.80000000E-04  3.80000000E-04  3.80000000E-04  3.80000000E-04  3.80000000E-04  3.80000000E-04  3.80000000E-04  3.80000000E-04  3.80000000E-04  3.80000000E-04  3.80000000E-04  3.80000000E-04  3.80000000E-04  3.80000000E-04  3.80000000E-04  3.80000000E-04  3.80000000E-04  3.80000000E-04  3.80000000E-04
      3.80000000E-04  3.80000000E-04  3.80000000E-04  3.80000000E-04  3.80000000E-04  3.80000000E-04  3.80000000E-04  3.80000000E-04  3.80000000E-04  3.80000000E-04  3.80000000E-04  3.80000000E-04  3.80000000E-04  3.80000000E-04  3.80000000E-04  3.80000000E-04  3.80000000E-04  3.80000000E-04  3.80000000E-04  3.80000000E-04
      3.80000000E-04  3.80000000E-04  3.80000000E-04  3.80000000E-04  3.80000000E-04  3.80000000E-04  3.80000000E-04  3.80000000E-04  3.80000000E-04  3.80000000E-04  3.80000000E-04  3.80000000E-04  3.80000000E-04  3.80000000E-04  3.80000000E-04  3.80000000E-04  3.80000000E-04  3.80000000E-04  3.80000000E-04  3.80000000E-04
      3.80000000E-04  3.80000000E-04  3.80000000E-04  3.80000000E-04  3.80000000E-04  3.80000000E-04  3.80000000E-04  3.80000000E-04  3.80000000E-04  3.80000000E-04  3.80000000E-04  3.80000000E-04  3.80000000E-04  3.80000000E-04  3.80000000E-04  3.80000000E-04  3.80000000E-04  3.80000000E-04  3.80000000E-04  3.80000000E-04
      3.80000000E-04  3.80000000E-04  3.80000000E-04  3.80000000E-04  3.80000000E-04  3.80000000E-04  3.80000000E-04  3.80000000E-04  3.80000000E-04  3.80000000E-04  3.80000000E-04  3.80000000E-04  3.80000000E-04  3.80000000E-04  3.80000000E-04  3.80000000E-04  3.80000000E-04  3.80000000E-04  3.80000000E-04  3.80000000E-04
      3.80000000E-04  3.80000000E-04  3.80000000E-04  3.80000000E-04  3.80000000E-04  3.80000000E-04  3.80000000E-04  3.80000000E-04  3.80000000E-04  3.80000000E-04  3.80000000E-04  3.80000000E-04  3.80000000E-04  3.80000000E-04  3.80000000E-04  3.80000000E-04  3.80000000E-04  3.80000000E-04  3.80000000E-04  3.80000000E-04
      3.80000000E-04  3.80000000E-04  3.80000000E-04  3.80000000E-04  3.80000000E-04  3.80000000E-04  3.80000000E-04  3.80000000E-04  3.80000000E-04  3.80000000E-04  3.80000000E-04  3.80000000E-04  3.80000000E-04  3.80000000E-04  3.80000000E-04  3.80000000E-04  3.80000000E-04  3.80000000E-04  3.80000000E-04  3.80000000E-04
      3.80000000E-04  3.80000000E-04  3.80000000E-04  3.80000000E-04  3.80000000E-04  3.80000000E-04  3.80000000E-04  3.80000000E-04  3.80000000E-04  3.80000000E-04  3.80000000E-04  3.80000000E-04  3.80000000E-04  3.80000000E-04  3.80000000E-04  3.80000000E-04  3.80000000E-04  3.80000000E-04  3.80000000E-04  3.80000000E-04
      3.80000000E-04  3.80000000E-04  3.80000000E-04  3.80000000E-04  3.80000000E-04  3.80000000E-04  3.80000000E-04  3.80000000E-04  3.80000000E-04  3.80000000E-04  3.80000000E-04  3.80000000E-04  3.80000000E-04  3.80000000E-04  3.80000000E-04  3.80000000E-04  3.80000000E-04  3.80000000E-04  3.80000000E-04  3.80000000E-04
      3.80000000E-04  3.80000000E-04  3.80000000E-04  3.80000000E-04  3.80000000E-04  3.80000000E-04  3.80000000E-04  3.80000000E-04  3.80000000E-04  3.80000000E-04  3.80000000E-04  3.80000000E-04  3.80000000E-04  3.80000000E-04  3.80000000E-04  3.80000000E-04  3.80000000E-04  3.80000000E-04  3.80000000E-04  3.80000000E-04
      3.80000000E-04  3.80000000E-04  3.80000000E-04  3.80000000E-04  3.80000000E-04  3.80000000E-04  3.80000000E-04  3.80000000E-04  3.80000000E-04  3.80000000E-04  3.80000000E-04  3.80000000E-04  3.80000000E-04  3.80000000E-04  3.80000000E-04  3.80000000E-04  3.80000000E-04  3.80000000E-04  3.80000000E-04  3.80000000E-04
      3.80000000E-04  3.80000000E-04  3.80000000E-04  3.80000000E-04  3.80000000E-04  3.80000000E-04  3.80000000E-04  3.80000000E-04  3.80000000E-04  3.80000000E-04  3.80000000E-04  3.80000000E-04  3.80000000E-04  3.80000000E-04  3.80000000E-04  3.80000000E-04  3.80000000E-04  3.80000000E-04  3.80000000E-04  3.80000000E-04
      3.80000000E-04  3.80000000E-04  3.80000000E-04  3.80000000E-04  3.80000000E-04  3.80000000E-04  3.80000000E-04  3.80000000E-04  3.80000000E-04  3.80000000E-04  3.80000000E-04  3.80000000E-04  3.80000000E-04  3.80000000E-04  3.80000000E-04  3.80000000E-04  3.80000000E-04  3.80000000E-04  3.80000000E-04  3.80000000E-04
      3.80000000E-04  3.80000000E-04  3.80000000E-04  3.80000000E-04  3.80000000E-04  3.80000000E-04  3.80000000E-04  3.80000000E-04  3.80000000E-04  3.80000000E-04  3.80000000E-04  3.80000000E-04  3.80000000E-04  3.80000000E-04  3.80000000E-04  3.80000000E-04  3.80000000E-04  3.80000000E-04  3.80000000E-04  3.80000000E-04
      3.80000000E-04  3.80000000E-04  3.80000000E-04  3.80000000E-04  3.80000000E-04  3.80000000E-04  3.80000000E-04  3.80000000E-04  3.80000000E-04  3.80000000E-04  3.80000000E-04  3.80000000E-04  3.80000000E-04  3.80000000E-04  3.80000000E-04  3.80000000E-04  3.80000000E-04  3.80000000E-04  3.80000000E-04  3.80000000E-04
      3.80000000E-04  3.80000000E-04  3.80000000E-04  3.80000000E-04  3.80000000E-04  3.80000000E-04  3.80000000E-04  3.80000000E-04  3.80000000E-04  3.80000000E-04  3.80000000E-04  3.80000000E-04  3.80000000E-04  3.80000000E-04  3.80000000E-04  3.80000000E-04  3.80000000E-04  3.80000000E-04  3.80000000E-04  3.80000000E-04
      3.80000000E-04  3.80000000E-04  3.80000000E-04  3.80000000E-04  3.80000000E-04  3.80000000E-04  3.80000000E-04  3.80000000E-04  3.80000000E-04  3.80000000E-04  3.80000000E-04  3.80000000E-04  3.80000000E-04  3.80000000E-04  3.80000000E-04  3.80000000E-04  3.80000000E-04  3.80000000E-04  3.80000000E-04  3.80000000E-04
      3.80000000E-04  3.80000000E-04  3.80000000E-04  3.80000000E-04  3.80000000E-04  3.80000000E-04  3.80000000E-04  3.80000000E-04  3.80000000E-04  3.80000000E-04  3.80000000E-04  3.80000000E-04  3.80000000E-04  3.80000000E-04  3.80000000E-04  3.80000000E-04  3.80000000E-04  3.80000000E-04  3.80000000E-04  3.80000000E-04
      3.80000000E-04  3.80000000E-04  3.80000000E-04  3.80000000E-04  3.80000000E-04  3.80000000E-04  3.80000000E-04  3.80000000E-04  3.80000000E-04  3.80000000E-04  3.80000000E-04  3.80000000E-04  3.80000000E-04  3.80000000E-04  3.80000000E-04  3.80000000E-04  3.80000000E-04  3.80000000E-04  3.80000000E-04  3.80000000E-04
      3.80000000E-04  3.80000000E-04  3.80000000E-04  3.80000000E-04  3.80000000E-04  3.80000000E-04  3.80000000E-04  3.80000000E-04  3.80000000E-04  3.80000000E-04  3.80000000E-04  3.80000000E-04  3.80000000E-04  3.80000000E-04  3.80000000E-04  3.80000000E-04  3.80000000E-04  3.80000000E-04  3.80000000E-04  3.80000000E-04
      3.80000000E-04  3.80000000E-04  3.80000000E-04  3.80000000E-04  3.80000000E-04  3.80000000E-04  3.80000000E-04  3.80000000E-04  3.80000000E-04  3.80000000E-04  3.80000000E-04  3.80000000E-04  3.80000000E-04  3.80000000E-04  3.80000000E-04  3.80000000E-04  3.80000000E-04  3.80000000E-04  3.80000000E-04  3.80000000E-04
      3.80000000E-04  3.80000000E-04  3.80000000E-04  3.80000000E-04  3.80000000E-04  3.80000000E-04  3.80000000E-04  3.80000000E-04  3.80000000E-04  3.80000000E-04  3.80000000E-04  3.80000000E-04  3.80000000E-04  3.80000000E-04  3.80000000E-04  3.80000000E-04  3.80000000E-04  3.80000000E-04  3.80000000E-04  3.80000000E-04
      3.80000000E-04  3.80000000E-04  3.80000000E-04  3.80000000E-04  3.80000000E-04  3.80000000E-04  3.80000000E-04  3.80000000E-04  3.80000000E-04  3.80000000E-04  3.80000000E-04  3.80000000E-04  3.80000000E-04  3.80000000E-04  3.80000000E-04  3.80000000E-04  3.80000000E-04  3.80000000E-04  3.80000000E-04  3.80000000E-04
      3.80000000E-04  3.80000000E-04  3.80000000E-04  3.80000000E-04  3.80000000E-04  3.80000000E-04  3.80000000E-04  3.80000000E-04  3.80000000E-04  3.80000000E-04  3.80000000E-04  3.80000000E-04  3.80000000E-04  3.80000000E-04  3.80000000E-04  3.80000000E-04  3.80000000E-04  3.80000000E-04  3.80000000E-04  3.80000000E-04
      3.80000000E-04  3.80000000E-04  3.80000000E-04  3.80000000E-04  3.80000000E-04  3.80000000E-04  3.80000000E-04  3.80000000E-04  3.80000000E-04  3.80000000E-04  3.80000000E-04  3.80000000E-04  3.80000000E-04  3.80000000E-04  3.80000000E-04  3.80000000E-04  3.80000000E-04  3.80000000E-04  3.80000000E-04  3.80000000E-04
      3.80000000E-04  3.80000000E-04  3.80000000E-04  3.80000000E-04  3.80000000E-04  3.80000000E-04  3.80000000E-04  3.80000000E-04  3.80000000E-04  3.80000000E-04  3.80000000E-04  3.80000000E-04  3.80000000E-04  3.80000000E-04  3.80000000E-04  3.80000000E-04  3.80000000E-04  3.80000000E-04  3.80000000E-04  3.80000000E-04
      3.80000000E-04  3.80000000E-04  3.80000000E-04  3.80000000E-04  3.80000000E-04  3.80000000E-04  3.80000000E-04  3.80000000E-04  3.80000000E-04  3.80000000E-04  3.80000000E-04  3.80000000E-04  3.80000000E-04  3.80000000E-04  3.80000000E-04  3.80000000E-04  3.80000000E-04  3.80000000E-04  3.80000000E-04  3.80000000E-04
      3.80000000E-04  3.80000000E-04  3.80000000E-04  3.80000000E-04  3.80000000E-04  3.80000000E-04  3.80000000E-04  3.80000000E-04  3.80000000E-04  3.80000000E-04  3.80000000E-04  3.80000000E-04  3.80000000E-04  3.80000000E-04  3.80000000E-04  3.80000000E-04  3.80000000E-04  3.80000000E-04  3.80000000E-04  3.80000000E-04
      3.80000000E-04  3.80000000E-04  3.80000000E-04  3.80000000E-04  3.80000000E-04  3.80000000E-04  3.80000000E-04  3.80000000E-04  3.80000000E-04  3.80000000E-04  3.80000000E-04  3.80000000E-04  3.80000000E-04  3.80000000E-04  3.80000000E-04  3.80000000E-04  3.80000000E-04  3.80000000E-04  3.80000000E-04  3.80000000E-04
      3.80000000E-04  3.80000000E-04  3.80000000E-04  3.80000000E-04  3.80000000E-04  3.80000000E-04  3.80000000E-04  3.80000000E-04  3.80000000E-04  3.80000000E-04  3.80000000E-04  3.80000000E-04  3.80000000E-04  3.80000000E-04  3.80000000E-04  3.80000000E-04  3.80000000E-04  3.80000000E-04  3.80000000E-04  3.80000000E-04
      3.80000000E-04  3.80000000E-04  3.80000000E-04  3.80000000E-04  3.80000000E-04  3.80000000E-04  3.80000000E-04  3.80000000E-04  3.80000000E-04  3.80000000E-04  3.80000000E-04  3.80000000E-04  3.80000000E-04  3.80000000E-04  3.80000000E-04  3.80000000E-04  3.80000000E-04  3.80000000E-04  3.80000000E-04  3.80000000E-04
      3.80000000E-04  3.80000000E-04  3.80000000E-04  3.80000000E-04  3.80000000E-04  3.80000000E-04  3.80000000E-04  3.80000000E-04  3.80000000E-04  3.80000000E-04  3.80000000E-04  3.80000000E-04  3.80000000E-04  3.80000000E-04  3.80000000E-04  3.80000000E-04  3.80000000E-04  3.80000000E-04  3.80000000E-04  3.80000000E-04
      3.80000000E-04  3.80000000E-04  3.80000000E-04  3.80000000E-04  3.80000000E-04  3.80000000E-04  3.80000000E-04  3.80000000E-04  3.80000000E-04  3.80000000E-04  3.80000000E-04  3.80000000E-04  3.80000000E-04  3.80000000E-04  3.80000000E-04  3.80000000E-04  3.80000000E-04  3.80000000E-04  3.80000000E-04  3.80000000E-04
      3.80000000E-04  3.80000000E-04  3.80000000E-04  3.80000000E-04  3.80000000E-04  3.80000000E-04  3.80000000E-04  3.80000000E-04  3.80000000E-04  3.80000000E-04  3.80000000E-04  3.80000000E-04  3.80000000E-04  3.80000000E-04  3.80000000E-04  3.80000000E-04  3.80000000E-04  3.80000000E-04  3.80000000E-04  3.80000000E-04
      3.80000000E-04  3.80000000E-04  3.80000000E-04  3.80000000E-04  3.80000000E-04  3.80000000E-04  3.80000000E-04  3.80000000E-04  3.80000000E-04  3.80000000E-04  3.80000000E-04  3.80000000E-04  3.80000000E-04  3.80000000E-04  3.80000000E-04  3.80000000E-04  3.80000000E-04  3.80000000E-04  3.80000000E-04  3.80000000E-04
      3.80000000E-04  3.80000000E-04  3.80000000E-04  3.80000000E-04  3.80000000E-04  3.80000000E-04  3.80000000E-04  3.80000000E-04  3.80000000E-04  3.80000000E-04  3.80000000E-04  3.80000000E-04  3.80000000E-04  3.80000000E-04  3.80000000E-04  3.80000000E-04  3.80000000E-04  3.80000000E-04  3.80000000E-04  3.80000000E-04
      3.80000000E-04  3.80000000E-04  3.80000000E-04  3.80000000E-04  3.80000000E-04  3.80000000E-04  3.80000000E-04  3.80000000E-04  3.80000000E-04  3.80000000E-04  3.80000000E-04  3.80000000E-04  3.80000000E-04  3.80000000E-04  3.80000000E-04  3.80000000E-04  3.80000000E-04  3.80000000E-04  3.80000000E-04  3.80000000E-04
      3.80000000E-04  3.80000000E-04  3.80000000E-04  3.80000000E-04  3.80000000E-04  3.80000000E-04  3.80000000E-04  3.80000000E-04  3.80000000E-04  3.80000000E-04  3.80000000E-04  3.80000000E-04  3.80000000E-04  3.80000000E-04  3.80000000E-04  3.80000000E-04  3.80000000E-04  3.80000000E-04  3.80000000E-04  3.80000000E-04
      3.80000000E-04  3.80000000E-04  3.80000000E-04  3.80000000E-04  3.80000000E-04  3.80000000E-04  3.80000000E-04  3.80000000E-04  3.80000000E-04  3.80000000E-04  3.80000000E-04  3.80000000E-04  3.80000000E-04  3.80000000E-04  3.80000000E-04  3.80000000E-04  3.80000000E-04  3.80000000E-04  3.80000000E-04  3.80000000E-04
      3.80000000E-04  3.80000000E-04  3.80000000E-04  3.80000000E-04  3.80000000E-04  3.80000000E-04  3.80000000E-04  3.80000000E-04  3.80000000E-04  3.80000000E-04  3.80000000E-04  3.80000000E-04  3.80000000E-04  3.80000000E-04  3.80000000E-04  3.80000000E-04  3.80000000E-04  3.80000000E-04  3.80000000E-04  3.80000000E-04