BEGIN options
END options

BEGIN griddata
  icelltype
    CONSTANT  0
  k  LAYERED
    INTERNAL  FACTOR  1.0
      2.78250113E-04  2.78250113E-04  2.78250113E-04  2.78250113E-04  2.78250113E-04  2.78250113E-04  2.78250113E-04  2.78250113E-04  2.78250113E-04  2.78250113E-04  2.78250113E-04  2.78250113E-04  2.78250113E-04  2.78250113E-04  2.78250113E-04  2.78250113E-04  2.78250113E-04  2.78250113E-04  2.78250113E-04  2.78250113E-04
      2.78250113E-04  2.78250113E-04  2.78250113E-04  2.78250113E-04  2.78250113E-04  2.78250113E-04  2.78250113E-04  2.78250113E-04  2.78250113E-04  2.78250113E-04  2.78250113E-04  2.78250113E-04  2.78250113E-04  2.78250113E-04  2.78250113E-04  2.78250113E-04  2.78250113E-04  2.78250113E-04  2.78250113E-04  2.78250113E-04
      2.78250113E-04  2.78250113E-04  2.78250113E-04  2.78250113E-04  2.78250113E-04  2.78250113E-04  2.78250113E-04  2.78250113E-04  2.78250113E-04  2.78250113E-04  2.78250113E-04  2.78250113E-04  2.78250113E-04  2.78250113E-04  2.78250113E-04  2.78250113E-04  2.78250113E-04  2.78250113E-04  2.78250113E-04  2.78250113E-04
      2.78250113E-04  2.78250113E-04  2.78250113E-04  2.78250113E-04  2.78250113E-04  2.78250113E-04  2.78250113E-04  2.78250113E-04  2.78250113E-04  2.78250113E-04  2.78250113E-04  2.78250113E-04  2.78250113E-04  2.78250113E-04  2.78250113E-04  2.78250113E-04  2.78250113E-04  2.78250113E-04  2.78250113E-04  2.78250113E-04
      2.78250113E-04  2.78250113E-04  2.78250113E-04  2.78250113E-04  2.78250113E-04  2.78250113E-04  2.78250113E-04  2.78250113E-04  2.78250113E-04  2.78250113E-04  2.78250113E-04  2.78250113E-04  2.78250113E-04  2.78250113E-04  2.78250113E-04  2.78250113E-04  2.78250113E-04  2.78250113E-04  2.78250113E-04  2.78250113E-04
      2.78250113E-04  2.78250113E-04  2.78250113E-04  2.78250113E-04  2.78250113E-04  2.78250113E-04  2.78250113E-04  2.78250113E-04  2.78250113E-04  2.78250113E-04  2.78250113E-04  2.78250113E-04  2.78250113E-04  2.78250113E-04  2.78250113E-04  2.78250113E-04  2.78250113E-04  2.78250113E-04  2.78250113E-04  2.78250113E-04
      2.78250113E-04  2.78250113E-04  2.78250113E-04  2.78250113E-04  2.78250113E-04  2.78250113E-04  2.78250113E-04  2.78250113E-04  2.78250113E-04  2.78250113E-04  2.78250113E-04  2.78250113E-04  2.78250113E-04  2.78250113E-04  2.78250113E-04  2.78250113E-04  2.78250113E-04  2.78250113E-04  2.78250113E-04  2.78250113E-04
      2.78250113E-04  2.78250113E-04  2.78250113E-04  2.78250113E-04  2.78250113E-04  2.78250113E-04  2.78250113E-04  2.78250113E-04  2.78250113E-04  2.78250113E-04
      2.78250113E-04  2.78250113E-04  2.78250113E-04  2.78250113E-04  2.78250113E-04  2.78250113E-04  2.78250113E-04  2.78250113E-04  2.78250113E-04  2.78250113E-04  2.78250113E-04  2.78250113E-04  2.78250113E-04  2.78250113E-04  2.78250113E-04  2.78250113E-04  2.78250113E-04  2.78250113E-04  2.78250113E-04  2.78250113E-04
      2.78250113E-04  2.78250113E-04  2.78250113E-04  2.78250113E-04  2.78250113E-04  2.78250113E-04  2.78250113E-04  2.78250113E-04  2.78250113E-04  2.78250113E-04  2.78250113E-04  2.78250113E-04  2.78250113E-04  2.78250113E-04  2.78250113E-04  2.78250113E-04  2.78250113E-04  2.78250113E-04  2.78250113E-04  2.78250113E-04
      2.78250113E-04  2.78250113E-04  2.78250113E-04  2.78250113E-04  2.78250113E-04  2.78250113E-04  2.78250113E-04  2.78250113E-04  2.78250113E-04  2.78250113E-04  2.78250113E-04  2.78250113E-04  2.78250113E-04  2.78250113E-04  2.78250113E-04  2.78250113E-04  2.78250113E-04  2.78250113E-04  2.78250113E-04  2.78250113E-04
      2.78250113E-04  2.78250113E-04  2.78250113E-04  2.78250113E-04  2.78250113E-04  2.78250113E-04  2.78250113E-04  2.78250113E-04  2.78250113E-04  2.78250113E-04  2.78250113E-04  2.78250113E-04  2.78250113E-04  2.78250113E-04  2.78250113E-04  2.78250113E-04  2.78250113E-04  2.78250113E-04  2.78250113E-04  2.78250113E-04
      2.78250113E-04  2.78250113E-04  2.78250113E-04  2.78250113E-04  2.78250113E-04  2.78250113E-04  2.78250113E-04  2.78250113E-04  2.78250113E-04  2.78250113E-04  2.78250113E-04  2.78250113E-04  2.78250113E-04  2.78250113E-04  2.78250113E-04  2.78250113E-04  2.78250113E-04  2.78250113E-04  2.78250113E-04  2.78250113E-04
      2.78250113E-04  2.78250113E-04  2.78250113E-04  2.78250113E-04  2.78250113E-04  2.78250113E-04  2.78250113E-04  2.78250113E-04  2.78250113E-04  2.78250113E-04  2.78250113E-04  2.78250113E-04  2.78250113E-04  2.78250113E-04  2.78250113E-04  2.78250113E-04  2.78250113E-04  2.78250113E-04  2.78250113E-04  2.78250113E-04
      2.78250113E-04  2.78250113E-04  2.78250113E-04  2.78250113E-04  2.78250113E-04  2.78250113E-04  2.78250113E-04  2.78250113E-04  2.78250113E-04  2.78250113E-04  2.78250113E-04  2.78250113E-04  2.78250113E-04  2.78250113E-04  2.78250113E-04  2.78250113E-04  2.78250113E-04  2.78250113E-04  2.78250113E-04  2.78250113E-04
      2.78250113E-04  2.78250113E-04  2.78250113E-04  2.78250113E-04  2.78250113E-04  2.78250113E-04  2.78250113E-04  2.78250113E-04  2.78250113E-04  2.78250113E-04
      2.78250113E-04  2.78250113E-04  2.78250113E-04  2.78250113E-04  2.78250113E-04  2.78250113E-04  2.78250113E-04  2.78250113E-04  2.78250113E-04  2.78250113E-04  2.78250113E-04  2.78250113E-04  2.78250113E-04  2.78250113E-04  2.78250113E-04  2.78250113E-04  2.78250113E-04  2.78250113E-04  2.78250113E-04  2.78250113E-04
      2.78250113E-04  2.78250113E-04  2.78250113E-04  2.78250113E-04  2.78250113E-04  2.78250113E-04  2.78250113E-04  2.78250113E-04  2.78250113E-04  2.78250113E-04  2.78250113E-04  2.78250113E-04  2.78250113E-04  2.78250113E-04  2.78250113E-04  2.78250113E-04  2.78250113E-04  2.78250113E-04  2.78250113E-04  2.78250113E-04
      2.78250113E-04  2.78250113E-04  2.78250113E-04  2.78250113E-04  2.78250113E-04  2.78250113E-04  2.78250113E-04  2.78250113E-04  2.78250113E-04  2.78250113E-04  2.78250113E-04  2.78250113E-04  2.78250113E-04  2.78250113E-04  2.78250113E-04  2.78250113E-04  2.78250113E-04  2.78250113E-04  2.78250113E-04  2.78250113E-04
      2.78250113E-04  2.78250113E-04  2.78250113E-04  2.78250113E-04  2.78250113E-04  2.78250113E-04  2.78250113E-04  2.78250113E-04  2.78250113E-04  2.78250113E-04  2.78250113E-04  2.78250113E-04  2.78250113E-04  2.78250113E-04  2.78250113E-04  2.78250113E-04  2.78250113E-04  2.78250113E-04  2.78250113E-04  2.78250113E-04
      2.78250113E-04  2.78250113E-04  2.78250113E-04  2.78250113E-04  2.78250113E-04  2.78250113E-04  2.78250113E-04  2.78250113E-04  2.78250113E-04  2.78250113E-04  2.78250113E-04  2.78250113E-04  2.78250113E-04  2.78250113E-04  2.78250113E-04  2.78250113E-04  2.78250113E-04  2.78250113E-04  2.78250113E-04  2.78250113E-04
      2.78250113E-04  2.78250113E-04  2.78250113E-04  2.78250113E-04  2.78250113E-04  2.78250113E-04  2.78250113E-04  2.78250113E-04  2.78250113E-04  2.78250113E-04  2.78250113E-04  2.78250113E-04  2.78250113E-04  2.78250113E-04  2.78250113E-04  2.78250113E-04  2.78250113E-04  2.78250113E-04  2.78250113E-04  2.78250113E-04
      2.78250113E-04  2.78250113E-04  2.78250113E-04  2.78250113E-04  2.78250113E-04  2.78250113E-04  2.78250113E-04  2.78250113E-04  2.78250113E-04  2.78250113E-04  2.78250113E-04  2.78250113E-04  2.78250113E-04  2.78250113E-04  2.78250113E-04  2.78250113E-04  2.78250113E-04  2.78250113E-04  2.78250113E-04  2.78250113E-04
      2.78250113E-04  2.78250113E-04  2.78250113E-04  2.78250113E-04  2.78250113E-04  2.78250113E-04  2.78250113E-04  2.78250113E-04  2.78250113E-04  2.78250113E-04
      2.78250113E-04  2.78250113E-04  2.78250113E-04  2.78250113E-04  2.78250113E-04  2.78250113E-04  2.78250113E-04  2.78250113E-04  2.78250113E-04  2.78250113E-04  2.78250113E-04  2.78250113E-04  2.78250113E-04  2.78250113E-04  2.78250113E-04  2.78250113E-04  2.78250113E-04  2.78250113E-04  2.78250113E-04  2.78250113E-04
      2.78250113E-04  2.78250113E-04  2.78250113E-04  2.78250113E-04  2.78250113E-04  2.78250113E-04  2.78250113E-04  2.78250113E-04  2.78250113E-04  2.78250113E-04  2.78250113E-04  2.78250113E-04  2.78250113E-04  2.78250113E-04  2.78250113E-04  2.78250113E-04  2.78250113E-04  2.78250113E-04  2.78250113E-04  2.78250113E-04
      2.78250113E-04  2.78250113E-04  2.78250113E-04  2.78250113E-04  2.78250113E-04  2.78250113E-04  2.78250113E-04  2.78250113E-04  2.78250113E-04  2.78250113E-04  2.78250113E-04  2.78250113E-04  2.78250113E-04  2.78250113E-04  2.78250113E-04  2.78250113E-04  2.78250113E-04  2.78250113E-04  2.78250113E-04  2.78250113E-04
      2.78250113E-04  2.78250113E-04  2.78250113E-04  2.78250113E-04  2.78250113E-04  2.78250113E-04  2.78250113E-04  2.78250113E-04  2.78250113E-04  2.78250113E-04  2.78250113E-04  2.78250113E-04  2.78250113E-04  2.78250113E-04  2.78250113E-04  2.78250113E-04  2.78250113E-04  2.78250113E-04  2.78250113E-04  2.78250113E-04
      2.78250113E-04  2.78250113E-04  2.78250113E-04  2.78250113E-04  2.78250113E-04  2.78250113E-04  2.78250113E-04  2.78250113E-04  2.78250113E-04  2.78250113E-04  2.78250113E-04  2.78250113E-04  2.78250113E-04  2.78250113E-04  2.78250113E-04  2.78250113E-04  2.78250113E-04  2.78250113E-04  2.78250113E-04  2.78250113E-04
      2.78250113E-04  2.78250113E-04  2.78250113E-04  2.78250113E-04  2.78250113E-04  2.78250113E-04  2.78250113E-04  2.78250113E-04  2.78250113E-04  2.78250113E-04  2.78250113E-04  2.78250113E-04  2.78250113E-04  2.78250113E-04  2.78250113E-04  2.78250113E-04  2.78250113E-04  2.78250113E-04  2.78250113E-04  2.78250113E-04
      2.78250113E-04  2.78250113E-04  2.78250113E-04  2.78250113E-04  2.78250113E-04  2.78250113E-04  2.78250113E-04  2.78250113E-04  2.78250113E-04  2.78250113E-04  2.78250113E-04  2.78250113E-04  2.78250113E-04  2.78250113E-04  2.78250113E-04  2.78250113E-04  2.78250113E-04  2.78250113E-04  2.78250113E-04  2.78250113E-04
      2.78250113E-04  2.78250113E-04  2.78250113E-04  2.78250113E-04  2.78250113E-04  2.78250113E-04  2.78250113E-04  2.78250113E-04  2.78250113E-04  2.78250113E-04
      2.78250113E-04  2.78250113E-04  2.78250113E-04  2.78250113E-04  2.78250113E-04  2.78250113E-04  2.78250113E-04  2.78250113E-04  2.78250113E-04  2.78250113E-04  2.78250113E-04  2.78250113E-04  2.78250113E-04  2.78250113E-04  2.78250113E-04  2.78250113E-04  2.78250113E-04  2.78250113E-04  2.78250113E-04  2.78250113E-04
      2.78250113E-04  2.78250113E-04  2.78250113E-04  2.78250113E-04  2.78250113E-04  2.78250113E-04  2.78250113E-04  2.78250113E-04  2.78250113E-04  2.78250113E-04  2.78250113E-04  2.78250113E-04  2.78250113E-04  2.78250113E-04  2.78250113E-04  2.78250113E-04  2.78250113E-04  2.78250113E-04  2.78250113E-04  2.78250113E-04
      2.78250113E-04  2.78250113E-04  2.78250113E-04  2.78250113E-04  2.78250113E-04  2.78250113E-04  2.78250113E-04  2.78250113E-04  2.78250113E-04  2.78250113E-04  2.78250113E-04  2.78250113E-04  2.78250113E-04  2.78250113E-04  2.78250113E-04  2.78250113E-04  2.78250113E-04  2.78250113E-04  2.78250113E-04  2.78250113E-04
      2.78250113E-04  2.78250113E-04  2.78250113E-04  2.78250113E-04  2.78250113E-04  2.78250113E-04  2.78250113E-04  2.78250113E-04  2.78250113E-04  2.78250113E-04  2.78250113E-04  2.78250113E-04  2.78250113E-04  2.78250113E-04  2.78250113E-04  2.78250113E-04  2.78250113E-04  2.78250113E-04  2.78250113E-04  2.78250113E-04
      2.78250113E-04  2.78250113E-04  2.78250113E-04  2.78250113E-04  2.78250113E-04  2.78250113E-04  2.78250113E-04  2.78250113E-04  2.78250113E-04  2.78250113E-04  2.78250113E-04  2.78250113E-04  2.78250113E-04  2.78250113E-04  2.78250113E-04  2.78250113E-04  2.78250113E-04  2.78250113E-04  2.78250113E-04  2.78250113E-04
      2.78250113E-04  2.78250113E-04  2.78250113E-04  2.78250113E-04  2.78250113E-04  2.78250113E-04  2.78250113E-04  2.78250113E-04  2.78250113E-04  2.78250113E-04  2.78250113E-04  2.78250113E-04  2.78250113E-04  2.78250113E-04  2.78250113E-04  2.78250113E-04  2.78250113E-04  2.78250113E-04  2.78250113E-04  2.78250113E-04
      2.78250113E-04  2.78250113E-04  2.78250113E-04  2.78250113E-04  2.78250113E-04  2.78250113E-04  2.78250113E-04  2.78250113E-04  2.78250113E-04  2.78250113E-04  2.78250113E-04  2.78250113E-04  2.78250113E-04  2.78250113E-04  2.78250113E-04  2.78250113E-04  2.78250113E-04  2.78250113E-04  2.78250113E-04  2.78250113E-04
      2.78250113E-04  2.78250113E-04  2.78250113E-04  2.78250113E-04  2.78250113E-04  2.78250113E-04  2.78250113E-04  2.78250113E-04  2.78250113E-04  2.78250113E-04
      2.78250113E-04  2.78250113E-04  2.78250113E-04  2.78250113E-04  2.78250113E-04  2.78250113E-04  2.78250113E-04  2.78250113E-04  2.78250113E-04  2.78250113E-04  2.78250113E-04  2.78250113E-04  2.78250113E-04  2.78250113E-04  2.78250113E-04  2.78250113E-04  2.78250113E-04  2.78250113E-04  2.78250113E-04  2.78250113E-04
      2.78250113E-04  2.78250113E-04  2.78250113E-04  2.78250113E-04  2.78250113E-04  2.78250113E-04  2.78250113E-04  2.78250113E-04  2.78250113E-04  2.78250113E-04  2.78250113E-04  2.78250113E-04  2.78250113E-04  2.78250113E-04  2.78250113E-04  2.78250113E-04  2.78250113E-04  2.78250113E-04  2.78250113E-04  2.78250113E-04
      2.78250113E-04  2.78250113E-04  2.78250113E-04  2.78250113E-04  2.78250113E-04  2.78250113E-04  2.78250113E-04  2.78250113E-04  2.78250113E-04  2.78250113E-04  2.78250113E-04  2.78250113E-04  2.78250113E-04  2.78250113E-04  2.78250113E-04  2.78250113E-04  2.78250113E-04  2.78250113E-04  2.78250113E-04  2.78250113E-04
      2.78250113E-04  2.78250113E-04  2.78250113E-04  2.78250113E-04  2.78250113E-04  2.78250113E-04  2.78250113E-04  2.78250113E-04  2.78250113E-04  2.78250113E-04  2.78250113E-04  2.78250113E-04  2.78250113E-04  2.78250113E-04  2.78250113E-04  2.78250113E-04  2.78250113E-04  2.78250113E-04  2.78250113E-04  2.78250113E-04
      2.78250113E-04  2.78250113E-04  2.78250113E-04  2.78250113E-04  2.78250113E-04  2.78250113E-04  2.78250113E-04  2.78250113E-04  2.78250113E-04  2.78250113E-04  2.78250113E-04  2.78250113E-04  2.78250113E-04  2.78250113E-04  2.78250113E-04  2.78250113E-04  2.78250113E-04  2.78250113E-04  2.78250113E-04  2.78250113E-04
      2.78250113E-04  2.78250113E-04  2.78250113E-04  2.78250113E-04  2.78250113E-04  2.78250113E-04  2.78250113E-04  2.78250113E-04  2.78250113E-04  2.78250113E-04  2.78250113E-04  2.78250113E-04  2.78250113E-04  2.78250113E-04  2.78250113E-04  2.78250113E-04  2.78250113E-04  2.78250113E-04  2.78250113E-04  2.78250113E-04
      2.78250113E-04  2.78250113E-04  2.78250113E-04  2.78250113E-04  2.78250113E-04  2.78250113E-04  2.78250113E-04  2.78250113E-04  2.78250113E-04  2.78250113E-04  2.78250113E-04  2.78250113E-04  2.78250113E-04  2.78250113E-04  2.78250113E-04  2.78250113E-04  2.78250113E-04  2.78250113E-04  2.78250113E-04  2.78250113E-04
      2.78250113E-04  2.78250113E-04  2.78250113E-04  2.78250113E-04  2.78250113E-04  2.78250113E-04  2.78250113E-04  2.78250113E-04  2.78250113E-04  2.78250113E-04
      2.78250113E-04  2.78250113E-04  2.78250113E-04  2.78250113E-04  2.78250113E-04  2.78250113E-04  2.78250113E-04  2.78250113E-04  2.78250113E-04  2.78250113E-04  2.78250113E-04  2.78250113E-04  2.78250113E-04  2.78250113E-04  2.78250113E-04  2.78250113E-04  2.78250113E-04  2.78250113E-04  2.78250113E-04  2.78250113E-04
      2.78250113E-04  2.78250113E-04  2.78250113E-04  2.78250113E-04  2.78250113E-04  2.78250113E-04  2.78250113E-04  2.78250113E-04  2.78250113E-04  2.78250113E-04  2.78250113E-04  2.78250113E-04  2.78250113E-04  2.78250113E-04  2.78250113E-04  2.78250113E-04  2.78250113E-04  2.78250113E-04  2.78250113E-04  2.78250113E-04
      2.78250113E-04  2.78250113E-04  2.78250113E-04  2.78250113E-04  2.78250113E-04  2.78250113E-04  2.78250113E-04  2.78250113E-04  2.78250113E-04  2.78250113E-04  2.78250113E-04  2.78250113E-04  2.78250113E-04  2.78250113E-04  2.78250113E-04  2.78250113E-04  2.78250113E-04  2.78250113E-04  2.78250113E-04  2.78250113E-04
      2.78250113E-04  2.78250113E-04  2.78250113E-04  2.78250113E-04  2.78250113E-04  2.78250113E-04  2.78250113E-04  2.78250113E-04  2.78250113E-04  2.78250113E-04  2.78250113E-04  2.78250113E-04  2.78250113E-04  2.78250113E-04  2.78250113E-04  2.78250113E-04  2.78250113E-04  2.78250113E-04  2.78250113E-04  2.78250113E-04
      2.78250113E-04  2.78250113E-04  2.78250113E-04  2.78250113E-04  2.78250113E-04  2.78250113E-04  2.78250113E-04  2.78250113E-04  2.78250113E-04  2.78250113E-04  2.78250113E-04  2.78250113E-04  2.78250113E-04  2.78250113E-04  2.78250113E-04  2.78250113E-04  2.78250113E-04  2.78250113E-04  2.78250113E-04  2.78250113E-04
      2.78250113E-04  2.78250113E-04  2.78250113E-04  2.78250113E-04  2.78250113E-04  2.78250113E-04  2.78250113E-04  2.78250113E-04  2.78250113E-04  2.78250113E-04  2.78250113E-04  2.78250113E-04  2.78250113E-04  2.78250113E-04  2.78250113E-04  2.78250113E-04  2.78250113E-04  2.78250113E-04  2.78250113E-04  2.78250113E-04
      2.78250113E-04  2.78250113E-04  2.78250113E-04  2.78250113E-04  2.78250113E-04  2.78250113E-04  2.78250113E-04  2.78250113E-04  2.78250113E-04  2.78250113E-04  2.78250113E-04  2.78250113E-04  2.78250113E-04  2.78250113E-04  2.78250113E-04  2.78250113E-04  2.78250113E-04  2.78250113E-04  2.78250113E-04  2.78250113E-04
      2.78250113E-04  2.78250113E-04  2.78250113E-04  2.78250113E-04  2.78250113E-04  2.78250113E-04  2.78250113E-04  2.78250113E-04  2.78250113E-04  2.78250113E-04
      2.78250113E-04  2.78250113E-04  2.78250113E-04  2.78250113E-04  2.78250113E-04  2.78250113E-04  2.78250113E-04  2.78250113E-04  2.78250113E-04  2.78250113E-04  2.78250113E-04  2.78250113E-04  2.78250113E-04  2.78250113E-04  2.78250113E-04  2.78250113E-04  2.78250113E-04  2.78250113E-04  2.78250113E-04  2.78250113E-04
      2.78250113E-04  2.78250113E-04  2.78250113E-04  2.78250113E-04  2.78250113E-04  2.78250113E-04  2.78250113E-04  2.78250113E-04  2.78250113E-04  2.78250113E-04  2.78250113E-04  2.78250113E-04  2.78250113E-04  2.78250113E-04  2.78250113E-04  2.78250113E-04  2.78250113E-04  2.78250113E-04  2.78250113E-04  2.78250113E-04
      2.78250113E-04  2.78250113E-04  2.78250113E-04  2.78250113E-04  2.78250113E-04  2.78250113E-04  2.78250113E-04  2.78250113E-04  2.78250113E-04  2.78250113E-04  2.78250113E-04  2.78250113E-04  2.78250113E-04  2.78250113E-04  2.78250113E-04  2.78250113E-04  2.78250113E-04  2.78250113E-04  2.78250113E-04  2.78250113E-04
      2.78250113E-04  2.78250113E-04  2.78250113E-04  2.78250113E-04  2.78250113E-04  2.78250113E-04  2.78250113E-04  2.78250113E-04  2.78250113E-04  2.78250113E-04  2.78250113E-04  2.78250113E-04  2.78250113E-04  2.78250113E-04  2.78250113E-04  2.78250113E-04  2.78250113E-04  2.78250113E-04  2.78250113E-04  2.78250113E-04
      2.78250113E-04  2.78250113E-04  2.78250113E-04  2.78250113E-04  2.78250113E-04  2.78250113E-04  2.78250113E-04  2.78250113E-04  2.78250113E-04  2.78250113E-04  2.78250113E-04  2.78250113E-04  2.78250113E-04  2.78250113E-04  2.78250113E-04  2.78250113E-04  2.78250113E-04  2.78250113E-04  2.78250113E-04  2.78250113E-04
      2.78250113E-04  2.78250113E-04  2.78250113E-04  2.78250113E-04  2.78250113E-04  2.78250113E-04  2.78250113E-04  2.78250113E-04  2.78250113E-04  2.78250113E-04  2.78250113E-04  2.78250113E-04  2.78250113E-04  2.78250113E-04  2.78250113E-04  2.78250113E-04  2.78250113E-04  2.78250113E-04  2.78250113E-04  2.78250113E-04
      2.78250113E-04  2.78250113E-04  2.78250113E-04  2.78250113E-04  2.78250113E-04  2.78250113E-04  2.78250113E-04  2.78250113E-04  2.78250113E-04  2.78250113E-04  2.78250113E-04  2.78250113E-04  2.78250113E-04  2.78250113E-04  2.78250113E-04  2.78250113E-04  2.78250113E-04  2.78250113E-04  2.78250113E-04  2.78250113E-04
      2.78250113E-04  2.78250113E-04  2.78250113E-04  2.78250113E-04  2.78250113E-04  2.78250113E-04  2.78250113E-04  2.78250113E-04  2.78250113E-04  2.78250113E-04
      2.78250113E-04  2.78250113E-04  2.78250113E-04  2.78250113E-04  2.78250113E-04  2.78250113E-04  2.78250113E-04  2.78250113E-04  2.78250113E-04  2.78250113E-04  2.78250113E-04  2.78250113E-04  2.78250113E-04  2.78250113E-04  2.78250113E-04  2.78250113E-04  2.78250113E-04  2.78250113E-04  2.78250113E-04  2.78250113E-04
      2.78250113E-04  2.78250113E-04  2.78250113E-04  2.78250113E-04  2.78250113E-04  2.78250113E-04  2.78250113E-04  2.78250113E-04  2.78250113E-04  2.78250113E-04  2.78250113E-04  2.78250113E-04  2.78250113E-04  2.78250113E-04  2.78250113E-04  2.78250113E-04  2.78250113E-04  2.78250113E-04  2.78250113E-04  2.78250113E-04
      2.78250113E-04  2.78250113E-04  2.78250113E-04  2.78250113E-04  2.78250113E-04  2.78250113E-04  2.78250113E-04  2.78250113E-04  2.78250113E-04  2.78250113E-04  2.78250113E-04  2.78250113E-04  2.78250113E-04  2.78250113E-04  2.78250113E-04  2.78250113E-04  2.78250113E-04  2.78250113E-04  2.78250113E-04  2.78250113E-04
      2.78250113E-04  2.78250113E-04  2.78250113E-04  2.78250113E-04  2.78250113E-04  2.78250113E-04  2.78250113E-04  2.78250113E-04  2.78250113E-04  2.78250113E-04  2.78250113E-04  2.78250113E-04  2.78250113E-04  2.78250113E-04  2.78250113E-04  2.78250113E-04  2.78250113E-04  2.78250113E-04  2.78250113E-04  2.78250113E-04
      2.78250113E-04  2.78250113E-04  2.78250113E-04  2.78250113E-04  2.78250113E-04  2.78250113E-04  2.78250113E-04  2.78250113E-04  2.78250113E-04  2.78250113E-04  2.78250113E-04  2.78250113E-04  2.78250113E-04  2.78250113E-04  2.78250113E-04  2.78250113E-04  2.78250113E-04  2.78250113E-04  2.78250113E-04  2.78250113E-04
      2.78250113E-04  2.78250113E-04  2.78250113E-04  2.78250113E-04  2.78250113E-04  2.78250113E-04  2.78250113E-04  2.78250113E-04  2.78250113E-04  2.78250113E-04  2.78250113E-04  2.78250113E-04  2.78250113E-04  2.78250113E-04  2.78250113E-04  2.78250113E-04  2.78250113E-04  2.78250113E-04  2.78250113E-04  2.78250113E-04
      2.78250113E-04  2.78250113E-04  2.78250113E-04  2.78250113E-04  2.78250113E-04  2.78250113E-04  2.78250113E-04  2.78250113E-04  2.78250113E-04  2.78250113E-04  2.78250113E-04  2.78250113E-04  2.78250113E-04  2.78250113E-04  2.78250113E-04  2.78250113E-04  2.78250113E-04  2.78250113E-04  2.78250113E-04  2.78250113E-04
      2.78250113E-04  2.78250113E-04  2.78250113E-04  2.78250113E-04  2.78250113E-04  2.78250113E-04  2.78250113E-04  2.78250113E-04  2.78250113E-04  2.78250113E-04
      2.78250113E-04  2.78250113E-04  2.78250113E-04  2.78250113E-04  2.78250113E-04  2.78250113E-04  2.78250113E-04  2.78250113E-04  2.78250113E-04  2.78250113E-04  2.78250113E-04  2.78250113E-04  2.78250113E-04  2.78250113E-04  2.78250113E-04  2.78250113E-04  2.78250113E-04  2.78250113E-04  2.78250113E-04  2.78250113E-04
      2.78250113E-04  2.78250113E-04  2.78250113E-04  2.78250113E-04  2.78250113E-04  2.78250113E-04  2.78250113E-04  2.78250113E-04  2.78250113E-04  2.78250113E-04  2.78250113E-04  2.78250113E-04  2.78250113E-04  2.78250113E-04  2.78250113E-04  2.78250113E-04  2.78250113E-04  2.78250113E-04  2.78250113E-04  2.78250113E-04
      2.78250113E-04  2.78250113E-04  2.78250113E-04  2.78250113E-04  2.78250113E-04  2.78250113E-04  2.78250113E-04  2.78250113E-04  2.78250113E-04  2.78250113E-04  2.78250113E-04  2.78250113E-04  2.78250113E-04  2.78250113E-04  2.78250113E-04  2.78250113E-04  2.78250113E-04  2.78250113E-04  2.78250113E-04  2.78250113E-04
      2.78250113E-04  2.78250113E-04  2.78250113E-04  2.78250113E-04  2.78250113E-04  2.78250113E-04  2.78250113E-04  2.78250113E-04  2.78250113E-04  2.78250113E-04  2.78250113E-04  2.78250113E-04  2.78250113E-04  2.78250113E-04  2.78250113E-04  2.78250113E-04  2.78250113E-04  2.78250113E-04  2.78250113E-04  2.78250113E-04
      2.78250113E-04  2.78250113E-04  2.78250113E-04  2.78250113E-04  2.78250113E-04  2.78250113E-04  2.78250113E-04  2.78250113E-04  2.78250113E-04  2.78250113E-04  2.78250113E-04  2.78250113E-04  2.78250113E-04  2.78250113E-04  2.78250113E-04  2.78250113E-04  2.78250113E-04  2.78250113E-04  2.78250113E-04  2.78250113E-04
      2.78250113E-04  2.78250113E-04  2.78250113E-04  2.78250113E-04  2.78250113E-04  2.78250113E-04  2.78250113E-04  2.78250113E-04  2.78250113E-04  2.78250113E-04  2.78250113E-04  2.78250113E-04  2.78250113E-04  2.78250113E-04  2.78250113E-04  2.78250113E-04  2.78250113E-04  2.78250113E-04  2.78250113E-04  2.78250113E-04
      2.78250113E-04  2.78250113E-04  2.78250113E-04  2.78250113E-04  2.78250113E-04  2.78250113E-04  2.78250113E-04  2.78250113E-04  2.78250113E-04  2.78250113E-04  2.78250113E-04  2.78250113E-04  2.78250113E-04  2.78250113E-04  2.78250113E-04  2.78250113E-04  2.78250113E-04  2.78250113E-04  2.78250113E-04  2.78250113E-04
      2.78250113E-04  2.78250113E-04  2.78250113E-04  2.78250113E-04  2.78250113E-04  2.78250113E-04  2.78250113E-04  2.78250113E-04  2.78250113E-04  2.78250113E-04
      2.78250113E-04  2.78250113E-04  2.78250113E-04  2.78250113E-04  2.78250113E-04  2.78250113E-04  2.78250113E-04  2.78250113E-04  2.78250113E-04  2.78250113E-04  2.78250113E-04  2.78250113E-04  2.78250113E-04  2.78250113E-04  2.78250113E-04  2.78250113E-04  2.78250113E-04  2.78250113E-04  2.78250113E-04  2.78250113E-04
      2.78250113E-04  2.78250113E-04  2.78250113E-04  2.78250113E-04  2.78250113E-04  2.78250113E-04  2.78250113E-04  2.78250113E-04  2.78250113E-04  2.78250113E-04  2.78250113E-04  2.78250113E-04  2.78250113E-04  2.78250113E-04  2.78250113E-04  2.78250113E-04  2.78250113E-04  2.78250113E-04  2.78250113E-04  2.78250113E-04
      2.78250113E-04  2.78250113E-04  2.78250113E-04  2.78250113E-04  2.78250113E-04  2.78250113E-04  2.78250113E-04  2.78250113E-04  2.78250113E-04  2.78250113E-04  2.78250113E-04  2.78250113E-04  2.78250113E-04  2.78250113E-04  2.78250113E-04  2.78250113E-04  2.78250113E-04  2.78250113E-04  2.78250113E-04  2.78250113E-04
      2.78250113E-04  2.78250113E-04  2.78250113E-04  2.78250113E-04  2.78250113E-04  2.78250113E-04  2.78250113E-04  2.78250113E-04  2.78250113E-04  2.78250113E-04  2.78250113E-04  2.78250113E-04  2.78250113E-04  2.78250113E-04  2.78250113E-04  2.78250113E-04  2.78250113E-04  2.78250113E-04  2.78250113E-04  2.78250113E-04
      2.78250113E-04  2.78250113E-04  2.78250113E-04  2.78250113E-04  2.78250113E-04  2.78250113E-04  2.78250113E-04  2.78250113E-04  2.78250113E-04  2.78250113E-04  2.78250113E-04  2.78250113E-04  2.78250113E-04  2.78250113E-04  2.78250113E-04  2.78250113E-04  2.78250113E-04  2.78250113E-04  2.78250113E-04  2.78250113E-04
      2.78250113E-04  2.78250113E-04  2.78250113E-04  2.78250113E-04  2.78250113E-04  2.78250113E-04  2.78250113E-04  2.78250113E-04  2.78250113E-04  2.78250113E-04  2.78250113E-04  2.78250113E-04  2.78250113E-04  2.78250113E-04  2.78250113E-04  2.78250113E-04  2.78250113E-04  2.78250113E-04  2.78250113E-04  2.78250113E-04
      2.78250113E-04  2.78250113E-04  2.78250113E-04  2.78250113E-04  2.78250113E-04  2.78250113E-04  2.78250113E-04  2.78250113E-04  2.78250113E-04  2.78250113E-04  2.78250113E-04  2.78250113E-04  2.78250113E-04  2.78250113E-04  2.78250113E-04  2.78250113E-04  2.78250113E-04  2.78250113E-04  2.78250113E-04  2.78250113E-04
      2.78250113E-04  2.78250113E-04  2.78250113E-04  2.78250113E-04  2.78250113E-04  2.78250113E-04  2.78250113E-04  2.78250113E-04  2.78250113E-04  2.78250113E-04
      2.78250113E-04  2.78250113E-04  2.78250113E-04  2.78250113E-04  2.78250113E-04  2.78250113E-04  2.78250113E-04  2.78250113E-04  2.78250113E-04  2.78250113E-04  2.78250113E-04  2.78250113E-04  2.78250113E-04  2.78250113E-04  2.78250113E-04  2.78250113E-04  2.78250113E-04  2.78250113E-04  2.78250113E-04  2.78250113E-04
      2.78250113E-04  2.78250113E-04  2.78250113E-04  2.78250113E-04  2.78250113E-04  2.78250113E-04  2.78250113E-04  2.78250113E-04  2.78250113E-04  2.78250113E-04  2.78250113E-04  2.78250113E-04  2.78250113E-04  2.78250113E-04  2.78250113E-04  2.78250113E-04  2.78250113E-04  2.78250113E-04  2.78250113E-04  2.78250113E-04
      2.78250113E-04  2.78250113E-04  2.78250113E-04  2.78250113E-04  2.78250113E-04  2.78250113E-04  2.78250113E-04  2.78250113E-04  2.78250113E-04  2.78250113E-04  2.78250113E-04  2.78250113E-04  2.78250113E-04  2.78250113E-04  2.78250113E-04  2.78250113E-04  2.78250113E-04  2.78250113E-04  2.78250113E-04  2.78250113E-04
      2.78250113E-04  2.78250113E-04  2.78250113E-04  2.78250113E-04  2.78250113E-04  2.78250113E-04  2.78250113E-04  2.78250113E-04  2.78250113E-04  2.78250113E-04  2.78250113E-04  2.78250113E-04  2.78250113E-04  2.78250113E-04  2.78250113E-04  2.78250113E-04  2.78250113E-04  2.78250113E-04  2.78250113E-04  2.78250113E-04
      2.78250113E-04  2.78250113E-04  2.78250113E-04  2.78250113E-04  2.78250113E-04  2.78250113E-04  2.78250113E-04  2.78250113E-04  2.78250113E-04  2.78250113E-04  2.78250113E-04  2.78250113E-04  2.78250113E-04  2.78250113E-04  2.78250113E-04  2.78250113E-04  2.78250113E-04  2.78250113E-04  2.78250113E-04  2.78250113E-04
      2.78250113E-04  2.78250113E-04  2.78250113E-04  2.78250113E-04  2.78250113E-04  2.78250113E-04  2.78250113E-04  2.78250113E-04  2.78250113E-04  2.78250113E-04  2.78250113E-04  2.78250113E-04  2.78250113E-04  2.78250113E-04  2.78250113E-04  2.78250113E-04  2.78250113E-04  2.78250113E-04  2.78250113E-04  2.78250113E-04
      2.78250113E-04  2.78250113E-04  2.78250113E-04  2.78250113E-04  2.78250113E-04  2.78250113E-04  2.78250113E-04  2.78250113E-04  2.78250113E-04  2.78250113E-04  2.78250113E-04  2.78250113E-04  2.78250113E-04  2.78250113E-04  2.78250113E-04  2.78250113E-04  2.78250113E-04  2.78250113E-04  2.78250113E-04  2.78250113E-04
      2.78250113E-04  2.78250113E-04  2.78250113E-04  2.78250113E-04  2.78250113E-04  2.78250113E-04  2.78250113E-04  2.78250113E-04  2.78250113E-04  2.78250113E-04
      2.78250113E-04  2.78250113E-04  2.78250113E-04  2.78250113E-04  2.78250113E-04  2.78250113E-04  2.78250113E-04  2.78250113E-04  2.78250113E-04  2.78250113E-04  2.78250113E-04  2.78250113E-04  2.78250113E-04  2.78250113E-04  2.78250113E-04  2.78250113E-04  2.78250113E-04  2.78250113E-04  2.78250113E-04  2.78250113E-04