BEGIN options
  SAVE_FLOWS
END options

BEGIN dimensions
  MAXBOUND  83
END dimensions

BEGIN period  1
  1 60 88      27.69204185       0.01000000      25.69204185
  1 60 89      27.06110974       0.01000000      25.06110974
  1 60 90      26.50980483       0.01000000      24.50980483
  1 61 90      26.08930938       0.01000000      24.08930938
  1 61 91      25.67634906       0.01000000      23.67634906
  1 62 91      25.09680642       0.01000000      23.09680642
  1 63 91      24.51327299       0.01000000      22.51327299
  1 63 92      24.16129370       0.01000000      22.16129370
  1 64 92      23.72995126       0.01000000      21.72995126
  1 64 93      23.10485576       0.01000000      21.10485576
  1 64 94      22.53079905       0.01000000      20.53079905
  1 63 94      22.16862807       0.01000000      20.16862807
  1 63 95      21.67576645       0.01000000      19.67576645
  1 63 96      20.96839566       0.01000000      18.96839566
  1 63 97      20.28057167       0.01000000      18.28057167
  1 63 98      19.74135665       0.01000000      17.74135665
  1 64 98      19.28352636       0.01000000      17.28352636
  1 64 99      18.66347783       0.01000000      16.66347783
  1 64 100      18.13917194       0.01000000      16.13917194
  1 63 100      17.76686731       0.01000000      15.76686731
  1 63 101      17.25499284       0.01000000      15.25499284
  1 63 102      16.60749633       0.01000000      14.60749633
  1 63 103      16.19700688       0.01000000      14.19700688
  1 64 103      15.87015622       0.01000000      13.87015622
  1 64 104      15.31123791       0.01000000      13.31123791
  1 64 105      14.67058267       0.01000000      12.67058267
  1 64 106      14.03182373       0.01000000      12.03182373
  1 64 107      12.76020450       0.01000000      10.76020450
  1 64 108      12.30886103       0.01000000      10.30886103
  1 65 108      12.07629539       0.01000000      10.07629539
  1 65 109      11.75617921       0.01000000       9.75617921
  1 65 110      11.43850606       0.01000000       9.43850606
  1 66 110      11.22619822       0.01000000       9.22619822
  1 66 109      11.00897557       0.01000000       9.00897557
  1 67 109      10.88713151       0.01000000       8.88713151
  1 67 110      10.63353825       0.01000000       8.63353825
  1 68 110      10.34366614       0.01000000       8.34366614
  1 68 111       9.98591077       0.01000000       7.98591077
  1 68 112       9.54411688       0.01000000       7.54411688
  1 68 113       9.09726189       0.01000000       7.09726189
  1 68 114       8.66421172       0.01000000       6.66421172
  1 69 114       8.44807601       0.01000000       6.44807601
  1 69 115       8.21650712       0.01000000       6.21650712
  1 69 116       7.73773616       0.01000000       5.73773616
  1 70 116       7.43290212       0.01000000       5.43290212
  1 70 117       7.14067274       0.01000000       5.14067274
  1 71 117       6.84086707       0.01000000       4.84086707
  1 71 118       6.55650800       0.01000000       4.55650800
  1 71 119       6.09948227       0.01000000       4.09948227
  1 71 120       5.65443038       0.01000000       3.65443038
  1 71 121       4.90717765       0.01000000       2.90717765
  1 71 122       4.72289471       0.01000000       2.72289471
  1 71 123       4.53445408       0.01000000       2.53445408
  1 71 124       4.36950076       0.01000000       2.36950076
  1 70 124       4.24087689       0.01000000       2.24087689
  1 70 125       4.07457694       0.01000000       2.07457694
  1 69 125       3.96553632       0.01000000       1.96553632
  1 69 126       3.85422461       0.01000000       1.85422461
  1 69 127       3.68339299       0.01000000       1.68339299
  1 68 127       3.57779560       0.01000000       1.57779560
  1 68 128       3.43088605       0.01000000       1.43088605
  1 68 129       3.28235120       0.01000000       1.28235120
  1 67 129       3.17852819       0.01000000       1.17852819
  1 67 130       3.02482641       0.01000000       1.02482641
  1 67 131       2.83685339       0.01000000       0.83685339
  1 67 132       2.66270829       0.01000000       0.66270829
  1 66 132       2.56783532       0.01000000       0.56783532
  1 66 133       2.45751507       0.01000000       0.45751507
  1 66 134       2.26509092       0.01000000       0.26509092
  1 66 135       2.08278693       0.01000000       0.08278693
  1 65 135       1.98622488       0.01000000      -0.01377512
  1 65 136       1.87547734       0.01000000      -0.12452266
  1 65 137       1.67884457       0.01000000      -0.32115543
  1 65 138       1.52024553       0.01000000      -0.47975447
  1 64 138       1.42614044       0.01000000      -0.57385956
  1 64 139       1.30236497       0.01000000      -0.69763503
  1 64 140       1.11903627       0.01000000      -0.88096373
  1 64 141       0.90993229       0.01000000      -1.09006771
  1 63 141       0.77475295       0.01000000      -1.22524705
  1 63 142       0.66148639       0.01000000      -1.33851361
  1 62 142       0.50612955       0.01000000      -1.49387045
  1 62 143       0.35991037       0.01000000      -1.64008963
  1 61 143       0.25537677       0.01000000      -1.74462323
END period  1

