BEGIN options
  SAVE_FLOWS
END options

BEGIN dimensions
  MAXBOUND  23
END dimensions

BEGIN period  1
  2 107 48     115.00000000
  2 108 48     115.00000000
  2 119 59     115.00000000
  2 109 49     115.00000000
  2 110 49     115.00000000
  2 119 58     115.00000000
  2 110 50     115.00000000
  2 119 57     115.00000000
  2 120 55     115.00000000
  2 120 56     115.00000000
  2 111 51     115.00000000
  2 113 56     115.00000000
  2 115 56     115.00000000
  2 116 56     115.00000000
  2 117 56     115.00000000
  2 118 56     115.00000000
  2 119 56     115.00000000
  2 119 55     115.00000000
  2 112 52     115.00000000
  2 113 55     115.00000000
  2 112 53     115.00000000
  2 113 54     115.00000000
  2 119 60     115.00000000
END period  1

