BEGIN options
  SAVE_FLOWS
END options

BEGIN dimensions
  MAXBOUND  118
END dimensions

BEGIN period  1
  2 132 72     123.53543726       0.01000000     121.53543726
  2 132 73     122.58344944       0.01000000     120.58344944
  2 133 73     121.61064576       0.01000000     119.61064576
  2 133 74     120.99599591       0.01000000     118.99599591
  2 132 74     118.11043957       0.01000000     116.11043957
  2 132 75     116.81428563       0.01000000     114.81428563
  2 133 75     115.81928218       0.01000000     113.81928218
  2 133 76     112.71688204       0.01000000     110.71688204
  2 133 77     108.28089692       0.01000000     106.28089692
  2 134 77     107.49202398       0.01000000     105.49202398
  2 134 78     106.89602926       0.01000000     104.89602926
  2 133 78     106.14623741       0.01000000     104.14623741
  2 133 79     102.83162224       0.01000000     100.83162224
  2 133 80     100.70721696       0.01000000      98.70721696
  2 133 81      99.00000000       0.01000000      97.00000000
  2 132 81      99.00000000       0.01000000      97.00000000
  2 132 82      97.86733108       0.01000000      95.86733108
  2 132 83      93.17729348       0.01000000      91.17729348
  2 132 84      91.62870018       0.01000000      89.62870018
  2 131 84      90.87228665       0.01000000      88.87228665
  2 131 85      87.72614662       0.01000000      85.72614662
  2 130 85      86.41531713       0.01000000      84.41531713
  2 130 86      83.26311775       0.01000000      81.26311775
  2 130 87      82.35022536       0.01000000      80.35022536
  2 129 87      81.62668093       0.01000000      79.62668093
  2 129 88      80.47028484       0.01000000      78.47028484
  2 129 89      78.58714272       0.01000000      76.58714272
  2 128 89      77.94966149       0.01000000      75.94966149
  2 129 90      77.10806901       0.01000000      75.10806901
  2 130 90      76.46240387       0.01000000      74.46240387
  2 130 91      75.85845257       0.01000000      73.85845257
  2 130 92      75.22362245       0.01000000      73.22362245
  2 129 92      72.74659610       0.01000000      70.74659610
  2 128 92      69.00000000       0.01000000      67.00000000
  2 127 92      69.00000000       0.01000000      67.00000000
  2 127 93      69.00000000       0.01000000      67.00000000
  2 126 93      67.62423473       0.01000000      65.62423473
  2 126 94      64.00000000       0.01000000      62.00000000
  2 126 95      64.00000000       0.01000000      62.00000000
  2 125 95      62.93896657       0.01000000      60.93896657
  2 124 95      60.44883542       0.01000000      58.44883542
  2 124 96      58.64805485       0.01000000      56.64805485
  2 123 95      57.22904848       0.01000000      55.22904848
  2 122 95      56.10238039       0.01000000      54.10238039
  2 122 96      53.53350195       0.01000000      51.53350195
  2 121 96      52.68582620       0.01000000      50.68582620
  2 121 97      51.78675238       0.01000000      49.78675238
  2 120 97      50.86033820       0.01000000      48.86033820
  2 120 98      50.35473800       0.01000000      48.35473800
  2 119 98      48.27163370       0.01000000      46.27163370
  2 118 98      47.54267900       0.01000000      45.54267900
  2 118 99      46.94157346       0.01000000      44.94157346
  2 117 99      45.82285807       0.01000000      43.82285807
  2 117 100      45.20762734       0.01000000      43.20762734
  2 116 100      44.98458843       0.01000000      42.98458843
  2 116 99      43.36347228       0.01000000      41.36347228
  2 115 99      42.33967455       0.01000000      40.33967455
  2 115 100      41.37416438       0.01000000      39.37416438
  2 114 100      38.25392559       0.01000000      36.25392559
  2 113 101      36.60546157       0.01000000      34.60546157
  2 113 102      35.51180479       0.01000000      33.51180479
  1 112 102      33.65639184       0.01000000      31.65639184
  1 112 103      33.11283022       0.01000000      31.11283022
  1 111 103      32.66236853       0.01000000      30.66236853
  1 111 104      32.04132591       0.01000000      30.04132591
  1 111 105      31.29449558       0.01000000      29.29449558
  1 111 106      30.45918430       0.01000000      28.45918430
  1 111 107      29.91126200       0.01000000      27.91126200
  1 110 107      28.63501213       0.01000000      26.63501213
  1 110 108      28.11694888       0.01000000      26.11694888
  1 109 108      27.69127655       0.01000000      25.69127655
  1 109 109      27.12337191       0.01000000      25.12337191
  1 108 109      26.74549362       0.01000000      24.74549362
  1 108 110      26.32093148       0.01000000      24.32093148
  1 108 111      25.64956425       0.01000000      23.64956425
  1 108 112      24.99049635       0.01000000      22.99049635
  1 108 113      23.43130123       0.01000000      21.43130123
  1 108 114      22.29185477       0.01000000      20.29185477
  1 108 115      21.12776908       0.01000000      19.12776908
  1 108 116      19.95498335       0.01000000      17.95498335
  1 109 116      19.34403010       0.01000000      17.34403010
  1 109 117      18.67698406       0.01000000      16.67698406
  1 109 118      17.61015521       0.01000000      15.61015521
  1 110 118      16.90963517       0.01000000      14.90963517
  1 110 119      16.04036567       0.01000000      14.04036567
  1 110 120      14.92129130       0.01000000      12.92129130
  1 111 120      14.29713131       0.01000000      12.29713131
  1 111 121      12.36436039       0.01000000      10.36436039
  1 111 122      11.64386455       0.01000000       9.64386455
  1 110 122      10.80928507       0.01000000       8.80928507
  1 109 122       8.79388971       0.01000000       6.79388971
  1 109 123       8.51115556       0.01000000       6.51115556
  1 108 123       8.22460085       0.01000000       6.22460085
  1 108 124       7.80037093       0.01000000       5.80037093
  1 107 124       7.47937161       0.01000000       5.47937161
  1 107 125       7.10701751       0.01000000       5.10701751
  1 107 126       6.60660312       0.01000000       4.60660312
  1 107 127       6.13399412       0.01000000       4.13399412
  1 107 128       5.61360221       0.01000000       3.61360221
  1 107 129       5.09486917       0.01000000       3.09486917
  1 107 130       4.73552442       0.01000000       2.73552442
  1 108 130       4.49689647       0.01000000       2.49689647
  1 108 131       4.32173126       0.01000000       2.32173126
  1 107 131       4.05735398       0.01000000       2.05735398
  1 107 132       3.58706909       0.01000000       1.58706909
  1 106 132       3.31331924       0.01000000       1.31331924
  1 106 133       2.99625773       0.01000000       0.99625773
  1 105 133       2.63800047       0.01000000       0.63800047
  1 105 134       2.33490669       0.01000000       0.33490669
  1 104 134       1.96407790       0.01000000      -0.03592210
  1 104 135       1.65799997       0.01000000      -0.34200003
  1 103 135       1.29478091       0.01000000      -0.70521909
  1 103 136       0.98712281       0.01000000      -1.01287719
  1 102 136       0.62390375       0.01000000      -1.37609625
  1 102 137       0.31324023       0.01000000      -1.68675977
  1 101 137      -0.05126199       0.01000000      -2.05126199
  1 101 138      -0.35842201       0.01000000      -2.35842201
  1 107 142       0.00301694       0.01000000      -1.99698306
END period  1

