BEGIN options
  SAVE_FLOWS
END options

BEGIN dimensions
  MAXBOUND  127
END dimensions

BEGIN period  1
  1 167 64     130.44170391       0.00100000     128.44170391
  1 167 65     128.75639767       0.00100000     126.75639767
  1 167 66     127.55222636       0.00100000     125.55222636
  1 166 66     126.37350862       0.00100000     124.37350862
  1 166 67     124.16582444       0.00100000     122.16582444
  1 166 68     121.91977889       0.00100000     119.91977889
  1 166 69     120.65224247       0.00100000     118.65224247
  1 167 69     119.52381587       0.00100000     117.52381587
  1 167 70     117.85732305       0.00100000     115.85732305
  1 166 70     116.53602163       0.00100000     114.53602163
  1 166 71     114.68138111       0.00100000     112.68138111
  1 165 71     112.36046755       0.00100000     110.36046755
  1 164 71     110.14728099       0.00100000     108.14728099
  1 164 72     109.02420747       0.00100000     107.02420747
  1 163 72     107.81400151       0.00100000     105.81400151
  1 162 72     105.65597533       0.00100000     103.65597533
  1 162 73     103.56262542       0.00100000     101.56262542
  1 162 74     101.35438736       0.00100000      99.35438736
  1 162 75      99.15980779       0.00100000      97.15980779
  1 162 76      96.96084820       0.00100000      94.96084820
  1 162 77      94.76502989       0.00100000      92.76502989
  1 162 78      92.57416487       0.00100000      90.57416487
  1 162 79      90.36748113       0.00100000      88.36748113
  1 162 80      88.96619907       0.00100000      86.96619907
  1 161 80      87.70133091       0.00100000      85.70133091
  1 161 81      85.69735798       0.00100000      83.69735798
  1 160 81      84.30460520       0.00100000      82.30460520
  1 160 82      82.68920986       0.00100000      80.68920986
  1 159 82      81.22508671       0.00100000      79.22508671
  1 159 83      79.70175426       0.00100000      77.70175426
  1 159 84      77.98696909       0.00100000      75.98696909
  1 158 84      76.74161450       0.00100000      74.74161450
  1 158 85      74.75056574       0.00100000      72.75056574
  1 158 86      72.43599934       0.00100000      70.43599934
  1 158 87      68.41852309       0.00100000      66.41852309
  1 158 88      67.25117602       0.00100000      65.25117602
  1 157 88      66.65007440       0.00100000      64.65007440
  1 157 89      66.06816312       0.00100000      64.06816312
  1 156 89      64.91037395       0.00100000      62.91037395
  1 155 89      63.97990449       0.00100000      61.97990449
  1 155 90      63.16527986       0.00100000      61.16527986
  1 156 90      62.44262135       0.00100000      60.44262135
  1 156 91      61.52364872       0.00100000      59.52364872
  1 156 92      60.79026962       0.00100000      58.79026962
  1 155 92      60.69587687       0.00100000      58.69587687
  1 155 91      60.03262429       0.00100000      58.03262429
  1 154 91      58.71883435       0.00100000      56.71883435
  1 153 91      58.02898058       0.00100000      56.02898058
  1 153 92      57.36020887       0.00100000      55.36020887
  1 152 92      56.38720916       0.00100000      54.38720916
  1 152 93      55.50941256       0.00100000      53.50941256
  1 152 94      54.33229664       0.00100000      52.33229664
  1 152 95      53.60476811       0.00100000      51.60476811
  1 151 95      52.77080205       0.00100000      50.77080205
  1 150 95      51.98794925       0.00100000      49.98794925
  1 150 96      51.25305114       0.00100000      49.25305114
  1 149 96      50.41733897       0.00100000      48.41733897
  1 149 97      49.55371800       0.00100000      47.55371800
  1 149 98      48.80589108       0.00100000      46.80589108
  1 148 98      48.10438969       0.00100000      46.10438969
  1 148 99      47.21408568       0.00100000      45.21408568
  1 147 99      46.44277382       0.00100000      44.44277382
  1 147 100      45.62194576       0.00100000      43.62194576
  1 146 100      44.90200268       0.00100000      42.90200268
  1 146 101      43.81072491       0.00100000      41.81072491
  1 146 102      42.55171486       0.00100000      40.55171486
  1 146 103      41.67600048       0.00100000      39.67600048
  1 145 103      40.97221881       0.00100000      38.97221881
  1 145 104      40.23955765       0.00100000      38.23955765
  1 144 104      39.34876520       0.00100000      37.34876520
  1 144 105      38.48840701       0.00100000      36.48840701
  1 143 105      37.79915794       0.00100000      35.79915794
  1 143 106      36.76838481       0.00100000      34.76838481
  1 143 107      35.99212633       0.00100000      33.99212633
  1 142 107      35.28521008       0.00100000      33.28521008
  1 142 108      34.17186925       0.00100000      32.17186925
  1 142 109      33.35322810       0.00100000      31.35322810
  1 141 109      32.42974150       0.00100000      30.42974150
  1 140 109      31.37762790       0.00100000      29.37762790
  1 140 110      30.81142778       0.00100000      28.81142778
  1 139 110      30.03308650       0.00100000      28.03308650
  1 138 110      28.78683404       0.00100000      26.78683404
  1 137 110      28.03413658       0.00100000      26.03413658
  1 137 111      26.19967447       0.00100000      24.19967447
  1 137 112      25.30622868       0.00100000      23.30622868
  1 138 112      24.77089557       0.00100000      22.77089557
  1 138 113      24.08055061       0.00100000      22.08055061
  1 138 114      23.07508542       0.00100000      21.07508542
  1 138 115      22.03313475       0.00100000      20.03313475
  1 138 116      21.39703877       0.00100000      19.39703877
  1 137 116      20.79235897       0.00100000      18.79235897
  1 136 116      19.87211302       0.00100000      17.87211302
  1 136 117      19.37946169       0.00100000      17.37946169
  1 135 117      18.68555632       0.00100000      16.68555632
  1 135 118      18.04343140       0.00100000      16.04343140
  1 134 118      17.52143759       0.00100000      15.52143759
  1 134 119      16.60649727       0.00100000      14.60649727
  1 134 120      15.68080016       0.00100000      13.68080016
  1 134 121      14.74855363       0.00100000      12.74855363
  1 134 122      13.82098778       0.00100000      11.82098778
  1 134 123      12.91210713       0.00100000      10.91210713
  1 134 124      11.98660262       0.00100000       9.98660262
  1 134 125      11.05958387       0.00100000       9.05958387
  1 134 126      10.14866055       0.00100000       8.14866055
  1 134 127       9.23424520       0.00100000       7.23424520
  1 134 128       8.63442153       0.00100000       6.63442153
  1 133 128       8.16525874       0.00100000       6.16525874
  1 133 129       7.37477031       0.00100000       5.37477031
  1 133 130       5.83038947       0.00100000       3.83038947
  1 133 131       5.49241955       0.00100000       3.49241955
  1 133 132       5.14985312       0.00100000       3.14985312
  1 133 133       4.84655771       0.00100000       2.84655771
  1 134 133       4.66055745       0.00100000       2.66055745
  1 134 134       4.41502223       0.00100000       2.41502223
  1 134 135       4.05699705       0.00100000       2.05699705
  1 134 136       3.71645953       0.00100000       1.71645953
  1 134 137       3.37616227       0.00100000       1.37616227
  1 134 138       3.03198033       0.00100000       1.03198033
  1 134 139       2.67949975       0.00100000       0.67949975
  1 134 140       2.32259108       0.00100000       0.32259108
  1 134 141       2.13934542       0.00100000       0.13934542
  1 133 141       1.95597726       0.00100000      -0.04402274
  1 133 142       1.60107165       0.00100000      -0.39892835
  1 133 143       1.25287911       0.00100000      -0.74712089
  1 133 144       1.04516337       0.00100000      -0.95483663
  1 132 144       0.87121491       0.00100000      -1.12878509
  1 132 145       0.55060439       0.00100000      -1.44939561
END period  1

