BEGIN options
  SAVE_FLOWS
END options

BEGIN dimensions
  MAXBOUND  84
END dimensions

BEGIN period  1
  1 69 72      28.00000000       0.01000000      26.00000000
  1 69 73      27.66770188       0.01000000      25.66770188
  1 69 74      27.00597387       0.01000000      25.00597387
  1 69 75      26.28945302       0.01000000      24.28945302
  1 70 75      25.85627392       0.01000000      23.85627392
  1 70 76      25.46727565       0.01000000      23.46727565
  1 71 76      24.76668068       0.01000000      22.76668068
  1 72 76      24.26579765       0.01000000      22.26579765
  1 72 77      23.78969767       0.01000000      21.78969767
  1 73 77      23.37915765       0.01000000      21.37915765
  1 72 78      22.97362504       0.01000000      20.97362504
  1 72 79      22.26589826       0.01000000      20.26589826
  1 72 80      21.71158575       0.01000000      19.71158575
  1 71 80      21.33131693       0.01000000      19.33131693
  1 71 81      20.79598863       0.01000000      18.79598863
  1 71 82      20.19358450       0.01000000      18.19358450
  1 72 82      19.81249261       0.01000000      17.81249261
  1 72 83      19.34076743       0.01000000      17.34076743
  1 73 83      18.88225761       0.01000000      16.88225761
  1 73 84      18.52878302       0.01000000      16.52878302
  1 72 84      18.17990499       0.01000000      16.17990499
  1 72 85      17.71534431       0.01000000      15.71534431
  1 72 86      17.00898389       0.01000000      15.00898389
  1 72 87      16.35004963       0.01000000      14.35004963
  1 72 88      15.68947056       0.01000000      13.68947056
  1 72 89      15.02832911       0.01000000      13.02832911
  1 72 90      14.37594036       0.01000000      12.37594036
  1 72 91      13.72442709       0.01000000      11.72442709
  1 72 92      12.86849463       0.01000000      10.86849463
  1 73 92      12.62591394       0.01000000      10.62591394
  1 73 93      12.28429573       0.01000000      10.28429573
  1 73 94      11.90092031       0.01000000       9.90092031
  1 74 94      11.51205165       0.01000000       9.51205165
  1 75 94      11.05768067       0.01000000       9.05768067
  1 76 94      10.79185736       0.01000000       8.79185736
  1 76 95      10.47441383       0.01000000       8.47441383
  1 76 96      10.15462922       0.01000000       8.15462922
  1 77 96       9.93377681       0.01000000       7.93377681
  1 77 97       9.54357549       0.01000000       7.54357549
  1 77 98       9.09670853       0.01000000       7.09670853
  1 77 99       8.65295625       0.01000000       6.65295625
  1 77 100       8.21521471       0.01000000       6.21521471
  1 77 101       7.92114579       0.01000000       5.92114579
  1 78 101       7.60539899       0.01000000       5.60539899
  1 78 102       7.32460861       0.01000000       5.32460861
  1 79 102       7.03452476       0.01000000       5.03452476
  1 79 103       6.62395783       0.01000000       4.62395783
  1 80 103       6.39516105       0.01000000       4.39516105
  1 80 104       6.09797445       0.01000000       4.09797445
  1 80 105       5.65354203       0.01000000       3.65354203
  1 80 106       4.90698041       0.01000000       2.90698041
  1 80 107       4.72218012       0.01000000       2.72218012
  1 80 108       4.53132194       0.01000000       2.53132194
  1 80 109       4.42251995       0.01000000       2.42251995
  1 79 109       4.29379510       0.01000000       2.29379510
  1 79 110       4.14737325       0.01000000       2.14737325
  1 78 110       4.03715320       0.01000000       2.03715320
  1 78 111       3.86954458       0.01000000       1.86954458
  1 77 111       3.76204073       0.01000000       1.76204073
  1 77 112       3.63362274       0.01000000       1.63362274
  1 77 113       3.47045887       0.01000000       1.47045887
  1 76 113       3.36591369       0.01000000       1.36591369
  1 76 114       3.21513783       0.01000000       1.21513783
  1 76 115       3.01735792       0.01000000       1.01735792
  1 76 116       2.92048800       0.01000000       0.92048800
  1 75 116       2.82637844       0.01000000       0.82637844
  1 75 117       2.63963916       0.01000000       0.63963916
  1 75 118       2.44810545       0.01000000       0.44810545
  1 75 119       2.29960843       0.01000000       0.29960843
  1 74 119       2.20259159       0.01000000       0.20259159
  1 74 120       2.06101865       0.01000000       0.06101865
  1 74 121       1.86340806       0.01000000      -0.13659194
  1 74 122       1.75062078       0.01000000      -0.24937922
  1 73 122       1.65412438       0.01000000      -0.34587562
  1 73 123       1.47563239       0.01000000      -0.52436761
  1 73 124       1.28972000       0.01000000      -0.71028000
  1 73 125       1.10429392       0.01000000      -0.89570608
  1 73 126       0.95054246       0.01000000      -1.04945754
  1 72 126       0.80803038       0.01000000      -1.19196962
  1 72 127       0.69923709       0.01000000      -1.30076291
  1 71 127       0.55391198       0.01000000      -1.44608802
  1 70 127       0.42940294       0.01000000      -1.57059706
  1 70 128       0.32194455       0.01000000      -1.67805545
  1 70 129       0.16005364       0.01000000      -1.83994636
END period  1

