BEGIN options
  SAVE_FLOWS
END options

BEGIN dimensions
  MAXBOUND  48
END dimensions

BEGIN period  1
  1 117 6     178.03439040       0.00500000     176.03439040
  1 117 7     176.46133638       0.00500000     174.46133638
  1 116 7     173.54692441       0.00500000     171.54692441
  1 116 8     172.41319598       0.00500000     170.41319598
  1 116 9     171.04975608       0.00500000     169.04975608
  1 116 10     167.50464239       0.00500000     165.50464239
  1 116 11     164.47176952       0.00500000     162.47176952
  1 115 11     162.84322279       0.00500000     160.84322279
  1 115 12     157.95226740       0.00500000     155.95226740
  1 115 13     156.67877582       0.00500000     154.67877582
  1 114 13     155.55693686       0.00500000     153.55693686
  1 114 14     153.73122200       0.00500000     151.73122200
  1 113 14     152.85405239       0.00500000     150.85405239
  1 113 15     151.74111198       0.00500000     149.74111198
  1 112 15     150.95673290       0.00500000     148.95673290
  1 112 16     147.74182013       0.00500000     145.74182013
  1 112 17     146.38046250       0.00500000     144.38046250
  1 111 17     143.17727795       0.00500000     141.17727795
  1 111 18     141.81527206       0.00500000     139.81527206
  1 110 18     140.97147858       0.00500000     138.97147858
  1 110 19     138.11449197       0.00500000     136.11449197
  1 110 20     136.86746327       0.00500000     134.86746327
  1 109 20     135.91879708       0.00500000     133.91879708
  1 109 21     133.40995902       0.00500000     131.40995902
  1 108 21     132.55809556       0.00500000     130.55809556
  1 108 22     131.48109853       0.00500000     129.48109853
  1 108 23     130.54230414       0.00500000     128.54230414
  1 107 23     128.03058549       0.00500000     126.03058549
  1 107 24     126.06140042       0.00500000     124.06140042
  1 107 25     123.53300745       0.00500000     121.53300745
  1 106 25     122.70417027       0.00500000     120.70417027
  1 106 26     121.49635344       0.00500000     119.49635344
  1 106 27     117.74962935       0.00500000     115.74962935
  1 106 28     114.00000000       0.00500000     112.00000000
  1 106 29     113.36449766       0.00500000     111.36449766
  1 106 30     112.11460385       0.00500000     110.11460385
  1 106 31     110.88122053       0.00500000     108.88122053
  1 106 32     108.18107254       0.00500000     106.18107254
  1 106 33     107.12060796       0.00500000     105.12060796
  1 105 33     106.27578622       0.00500000     104.27578622
  1 105 34     103.34369299       0.00500000     101.34369299
  1 105 35     102.02812214       0.00500000     100.02812214
  1 105 36     101.25726533       0.00500000      99.25726533
  1 104 36     100.53411559       0.00500000      98.53411559
  1 104 37      98.41145826       0.00500000      96.41145826
  1 103 37      97.01423086       0.00500000      95.01423086
  1 103 38      96.11975945       0.00500000      94.11975945
  1 102 38      92.34361438       0.00500000      90.34361438
END period  1

