BEGIN options
  SAVE_FLOWS
END options

BEGIN dimensions
  MAXBOUND  54
END dimensions

BEGIN period  1
  3 136 48     139.57597275       0.01000000     137.57597275
  3 135 48     135.60538961       0.01000000     133.60538961
  3 135 49     129.94826262       0.01000000     127.94826262
  3 135 50     129.14142717       0.01000000     127.14142717
  3 135 51     127.32096296       0.01000000     125.32096296
  3 136 51     126.33987079       0.01000000     124.33987079
  3 136 52     122.95966506       0.01000000     120.95966506
  3 136 53     121.11915501       0.01000000     119.11915501
  3 135 53     119.57758449       0.01000000     117.57758449
  3 135 54     117.00685124       0.01000000     115.00685124
  3 135 55     113.28866726       0.01000000     111.28866726
  3 135 56     114.14510810       0.01000000     112.14510810
  3 134 56     113.35544961       0.01000000     111.35544961
  3 134 57     111.14775169       0.01000000     109.14775169
  3 134 58     110.65363095       0.01000000     108.65363095
  3 135 58     109.25345451       0.01000000     107.25345451
  3 135 59     107.49762659       0.01000000     105.49762659
  3 134 59     106.20319577       0.01000000     104.20319577
  3 134 60     105.22368488       0.01000000     103.22368488
  3 135 60     104.00361998       0.01000000     102.00361998
  3 134 61     102.65865260       0.01000000     100.65865260
  3 134 62     100.84952257       0.01000000      98.84952257
  3 133 62     100.78308202       0.01000000      98.78308202
  3 132 62     100.71452261       0.01000000      98.71452261
  3 133 63     100.64970042       0.01000000      98.64970042
  3 133 64      99.99754472       0.01000000      97.99754472
  3 132 64      98.46233933       0.01000000      96.46233933
  3 133 65      94.47193682       0.01000000      92.47193682
  3 132 68      81.43254440       0.01000000      79.43254440
  3 130 68      79.44363836       0.01000000      77.44363836
  3 131 70      78.44161536       0.01000000      76.44161536
  3 130 70      77.02581913       0.01000000      75.02581913
  3 131 71      75.27444703       0.01000000      73.27444703
  3 129 73      69.28648453       0.01000000      67.28648453
  3 127 73      64.82426588       0.01000000      62.82426588
  3 128 74      63.72549545       0.01000000      61.72549545
  3 128 75      63.20172925       0.01000000      61.20172925
  3 128 76      62.16729796       0.01000000      60.16729796
  3 127 77      61.64469944       0.01000000      59.64469944
  3 126 77      60.81585347       0.01000000      58.81585347
  3 126 78      59.00301075       0.01000000      57.00301075
  3 126 79      57.75780237       0.01000000      55.75780237
  3 125 79      54.74524025       0.01000000      52.74524025
  3 125 80      53.08554207       0.01000000      51.08554207
  3 125 81      51.61225016       0.01000000      49.61225016
  3 124 81      48.51375826       0.01000000      46.51375826
  3 124 82      45.27434027       0.01000000      43.27434027
  3 123 82      44.00000000       0.01000000      42.00000000
  3 123 83      44.00000000       0.01000000      42.00000000
  3 123 84      44.00000000       0.01000000      42.00000000
  3 122 84      42.82304527       0.01000000      40.82304527
  3 121 84      41.34148055       0.01000000      39.34148055
  3 121 85      40.85128367       0.01000000      38.85128367
  3 122 85      39.83284838       0.01000000      37.83284838
END period  1

