BEGIN options
  SAVE_FLOWS
END options

BEGIN dimensions
  MAXBOUND  67
END dimensions

BEGIN period  1
  4 136 48     138.97536885       0.00500000     136.97536885
  4 135 48     132.46935826       0.00500000     130.46935826
  4 135 49     129.17597283       0.00500000     127.17597283
  4 135 50     126.34346046       0.00500000     124.34346046
  4 135 51     125.06900834       0.00500000     123.06900834
  4 136 51     124.38217529       0.00500000     122.38217529
  4 136 52     121.75919005       0.00500000     119.75919005
  4 136 53     120.13476627       0.00500000     118.13476627
  4 135 53     118.77418484       0.00500000     116.77418484
  4 135 54     116.50527019       0.00500000     114.50527019
  4 135 55     113.28866726       0.00500000     111.28866726
  4 135 56     114.14510810       0.00500000     112.14510810
  4 134 56     113.35544961       0.00500000     111.35544961
  4 134 57     111.14775169       0.00500000     109.14775169
  4 134 58     110.65363095       0.00500000     108.65363095
  4 135 58     109.25345451       0.00500000     107.25345451
  4 135 59     107.49762659       0.00500000     105.49762659
  4 134 59     106.20319577       0.00500000     104.20319577
  4 134 60     105.22368488       0.00500000     103.22368488
  4 135 60     104.00361998       0.00500000     102.00361998
  4 134 61     102.65865260       0.00500000     100.65865260
  4 134 62     100.84952257       0.00500000      98.84952257
  4 133 62     100.78308202       0.00500000      98.78308202
  4 132 62     100.71452261       0.00500000      98.71452261
  4 133 63     100.64970042       0.00500000      98.64970042
  4 133 64      99.99754472       0.00500000      97.99754472
  4 132 64      98.46233933       0.00500000      96.46233933
  4 133 65      94.47193682       0.00500000      92.47193682
  11 132 65      92.51922427       0.00500000      90.51922427
  11 132 66      88.41262540       0.00500000      86.41262540
  11 131 66      86.79176672       0.00500000      84.79176672
  11 131 67      85.43293690       0.00500000      83.43293690
  11 132 67      81.79913321       0.00500000      79.79913321
  4 132 68      81.43254440       0.00500000      79.43254440
  11 131 68      80.11879342       0.00500000      78.11879342
  4 130 68      79.44363836       0.00500000      77.44363836
  11 131 69      78.94680578       0.00500000      76.94680578
  4 131 70      78.44161536       0.00500000      76.44161536
  4 130 70      77.02581913       0.00500000      75.02581913
  11 130 71      75.88169070       0.00500000      73.88169070
  4 131 71      75.27444703       0.00500000      73.27444703
  11 130 72      74.35039919       0.00500000      72.35039919
  11 129 72      71.53051449       0.00500000      69.53051449
  4 129 73      69.28648453       0.00500000      67.28648453
  11 128 73      67.40836680       0.00500000      65.40836680
  4 127 73      64.82426588       0.00500000      62.82426588
  11 127 74      63.73814311       0.00500000      61.73814311
  4 128 74      63.72549545       0.00500000      61.72549545
  4 128 75      63.20172925       0.00500000      61.20172925
  4 128 76      62.16729796       0.00500000      60.16729796
  11 127 76      61.55984126       0.00500000      59.55984126
  4 127 77      61.64469944       0.00500000      59.64469944
  4 126 77      60.81585347       0.00500000      58.81585347
  4 126 78      59.00301075       0.00500000      57.00301075
  4 126 79      57.75780237       0.00500000      55.75780237
  4 125 79      54.74524025       0.00500000      52.74524025
  4 125 80      53.08554207       0.00500000      51.08554207
  4 125 81      51.61225016       0.00500000      49.61225016
  4 124 81      48.51375826       0.00500000      46.51375826
  4 124 82      45.27434027       0.00500000      43.27434027
  4 123 82      44.00000000       0.00500000      42.00000000
  4 123 83      44.00000000       0.00500000      42.00000000
  4 123 84      44.00000000       0.00500000      42.00000000
  4 122 84      42.82304527       0.00500000      40.82304527
  4 121 84      41.34148055       0.00500000      39.34148055
  4 121 85      40.85128367       0.00500000      38.85128367
  4 122 85      39.83284838       0.00500000      37.83284838
END period  1

