BEGIN options
  SAVE_FLOWS
END options

BEGIN dimensions
  MAXBOUND  56
END dimensions

BEGIN period  1
  1 44 98       0.00357143
  1 44 99       0.00357143
  1 44 100       0.00357143
  1 44 101       0.00357143
  1 44 102       0.00357143
  1 44 103       0.00357143
  1 44 104       0.00357143
  1 44 105       0.00357143
  1 45 98       0.00357143
  1 46 96       0.00357143
  1 46 97       0.00357143
  1 47 96       0.00357143
  1 48 96       0.00357143
  1 49 96       0.00357143
  1 50 93       0.00357143
  1 50 94       0.00357143
  1 50 95       0.00357143
  1 51 86       0.00357143
  1 51 87       0.00357143
  1 51 91       0.00357143
  1 51 92       0.00357143
  1 52 86       0.00357143
  1 52 87       0.00357143
  1 52 88       0.00357143
  1 52 90       0.00357143
  1 53 87       0.00357143
  1 54 84       0.00357143
  1 54 87       0.00357143
  1 55 79       0.00357143
  1 55 80       0.00357143
  1 55 81       0.00357143
  1 55 82       0.00357143
  1 55 83       0.00357143
  1 55 84       0.00357143
  1 55 85       0.00357143
  1 55 86       0.00357143
  1 56 77       0.00357143
  1 56 78       0.00357143
  1 57 76       0.00357143
  1 58 73       0.00357143
  1 58 74       0.00357143
  1 58 75       0.00357143
  1 59 74       0.00357143
  1 60 74       0.00357143
  1 61 70       0.00357143
  1 61 71       0.00357143
  1 61 72       0.00357143
  1 61 73       0.00357143
  1 62 70       0.00357143
  1 63 71       0.00357143
  1 64 72       0.00357143
  1 65 73       0.00357143
  1 66 73       0.00357143
  1 67 72       0.00357143
  1 68 72       0.00357143
  1 69 72       0.00357143
END period  1

