BEGIN options
END options

BEGIN packages
  DIS6  test_Plio_multi.dis  dis
  IC6  test_Plio_multi.ic  ic
  OC6  test_Plio_multi.oc  oc
  NPF6  test_Plio_multi.npf  npf
  WEL6  test_Plio_multi.wel  wel
  RCH6  test_Plio_multi.rch  rch
  WEL6  Corb.wel  corb
  CHD6  sea.chd  sea
  CHD6  thuir.chd  thuir
  DRN6  eta.drn  eta
  RIV6  agly.riv  agly
  RIV6  Tet.riv  tet
  RIV6  Rea.riv  rea
  RIV6  Cant.riv  cant
  RIV6  Tech.riv  tech
  RIV6  Bol.riv  bol
END packages

