BEGIN options
  SAVE_FLOWS
END options

BEGIN griddata
  icelltype
    CONSTANT  0
  k  LAYERED
    CONSTANT  6.00000000E-04
    CONSTANT  2.50000000E-09
    INTERNAL  FACTOR  1.0
      3.36842750E-05  3.36843113E-05  3.65684100E-05  3.65684100E-05  3.65684500E-05  3.65684500E-05  3.65684500E-05  3.65684900E-05  3.65684900E-05  4.87479483E-05  4.87479483E-05  5.36867337E-05  5.48751923E-05  5.48751923E-05  5.48751923E-05  5.48751923E-05  5.13161649E-05  4.95947279E-05  4.95947279E-05  5.48783864E-05
      5.48783864E-05  5.39074681E-05  5.08646008E-05  5.08646008E-05  5.08647681E-05  5.08647681E-05  5.08649391E-05  5.08652156E-05  5.08652156E-05  5.08654957E-05  5.08654957E-05  5.08659432E-05  5.08664998E-05  5.08664998E-05  5.82072353E-05  5.82072353E-05  5.82074281E-05  5.82077482E-05  5.82077482E-05  5.82083230E-05
      5.82083230E-05  7.22419500E-05  7.22395707E-05  7.22395707E-05  1.14684313E-04  1.14684313E-04  1.14659830E-04  1.17936601E-04  1.17936601E-04  1.03920669E-04  1.03920669E-04  8.31229845E-05  9.66729203E-05  9.66729203E-05  9.66452208E-05  9.66452208E-05  9.77083255E-05  9.76715382E-05  9.76715382E-05  9.76304727E-05
      9.76304727E-05  9.75846051E-05  9.47945300E-05  9.47945300E-05  9.83826467E-05  9.83826467E-05  1.11501518E-04  1.03348269E-04  1.03348269E-04  1.03228456E-04  1.03228456E-04  9.85193838E-05  9.98663600E-05  9.98663600E-05  9.97130774E-05  9.97130774E-05  9.95348892E-05  9.93272479E-05  9.93272479E-05  9.90838016E-05
      9.90838016E-05  9.87964740E-05  9.60612524E-05  9.60612524E-05  9.57032098E-05  9.57032098E-05  9.52615374E-05  9.47176450E-05  9.47176450E-05  9.40609098E-05  9.40609098E-05  9.94323273E-05  9.84363433E-05  9.84363433E-05  9.64491119E-05  9.64491119E-05  9.58675882E-05  9.57453594E-05  9.57453594E-05  9.28755107E-05
      9.28755107E-05  9.37183504E-05  9.48926245E-05  9.48926245E-05  9.62364938E-05  9.62364938E-05  9.76126830E-05  9.89307446E-05  9.89307446E-05  1.00142453E-04  1.00142453E-04  1.01229583E-04  1.06869353E-04  1.06869353E-04  1.07795859E-04  1.07795859E-04  1.08595581E-04  1.09277942E-04  1.09277942E-04  1.09849105E-04
      1.09849105E-04  1.10311288E-04  1.10663204E-04  1.10663204E-04  1.10901186E-04  1.10901186E-04  1.11021676E-04  1.11023750E-04  1.11023750E-04  1.10911169E-04  1.10911169E-04  1.27115272E-04  1.33347014E-04  1.33347014E-04  1.33013848E-04  1.33013848E-04  1.32621266E-04  1.32192989E-04  1.32192989E-04  1.32192989E-04
      1.32192989E-04  1.32192989E-04  1.32192989E-04  1.32192989E-04  1.32192989E-04  1.32192989E-04  1.32192989E-04  1.32192989E-04  1.32192989E-04  1.32192989E-04  1.32192989E-04  1.32192989E-04  1.32192989E-04  1.32192989E-04  1.32192989E-04  1.32192989E-04  1.32192989E-04  1.32192989E-04  1.32192989E-04  1.32192989E-04
      1.32192989E-04  1.32192989E-04  1.32192989E-04  1.32192989E-04  1.32192989E-04  1.32192989E-04  1.32192989E-04  1.32192989E-04  1.32192989E-04  1.32192989E-04  1.32192989E-04  1.32192989E-04  1.32192989E-04  1.32192989E-04  1.32192989E-04  1.32192989E-04  1.32192989E-04  1.32192989E-04  1.32192989E-04  1.32192989E-04
      1.32192989E-04  1.32192989E-04  1.32192989E-04  1.32192989E-04  1.32192989E-04  1.32192989E-04  1.32192989E-04  1.32192989E-04  1.32192989E-04  1.32192989E-04  1.32192989E-04  1.32192989E-04  1.32192989E-04  1.32192989E-04  1.32192989E-04  1.32192989E-04  1.32192989E-04  1.32192989E-04  1.32192989E-04  1.32192989E-04
      1.32192989E-04  1.32192989E-04  1.32192989E-04  1.32192989E-04  1.32192989E-04  1.32192989E-04  1.32192989E-04  1.32192989E-04  1.32192989E-04  1.32192989E-04  1.32192989E-04  1.32192989E-04  1.32192989E-04  1.32192989E-04  1.32192989E-04  1.32192989E-04  1.32192989E-04  1.32192989E-04  1.32192989E-04  1.32192989E-04
      1.32192989E-04  1.32192989E-04  1.32192989E-04  1.32192989E-04  1.32192989E-04  1.32192989E-04  1.32192989E-04  1.32192989E-04  1.32192989E-04  1.32192989E-04  1.32192989E-04  1.32192989E-04  1.32192989E-04  1.32192989E-04
      3.36842750E-05  3.36843113E-05  3.65684100E-05  3.65684100E-05  3.65684500E-05  3.65684500E-05  3.65684500E-05  3.65684900E-05  3.65684900E-05  4.87479483E-05  4.87479483E-05  5.36867337E-05  5.48751923E-05  5.48751923E-05  5.48751923E-05  5.48751923E-05  5.13161649E-05  4.95947279E-05  4.95947279E-05  5.48783864E-05
      5.48783864E-05  5.39074681E-05  5.08646008E-05  5.08646008E-05  5.08647681E-05  5.08647681E-05  5.08649391E-05  5.08652156E-05  5.08652156E-05  5.08654957E-05  5.08654957E-05  5.08659432E-05  5.08664998E-05  5.08664998E-05  5.82072353E-05  5.82072353E-05  5.82074281E-05  5.82077482E-05  5.82077482E-05  5.82083230E-05
      5.82083230E-05  7.22419500E-05  7.22395707E-05  7.22395707E-05  1.14684313E-04  1.14684313E-04  1.14659830E-04  1.17936601E-04  1.17936601E-04  1.03920669E-04  1.03920669E-04  8.31229845E-05  9.66729203E-05  9.66729203E-05  9.66452208E-05  9.66452208E-05  9.77083255E-05  9.76715382E-05  9.76715382E-05  9.76304727E-05
      9.76304727E-05  9.75846051E-05  9.47945300E-05  9.47945300E-05  9.83826467E-05  9.83826467E-05  1.11501518E-04  1.03348269E-04  1.03348269E-04  1.03228456E-04  1.03228456E-04  9.85193838E-05  9.98663600E-05  9.98663600E-05  9.97130774E-05  9.97130774E-05  9.95348892E-05  9.93272479E-05  9.93272479E-05  9.90838016E-05
      9.90838016E-05  9.87964740E-05  9.60612524E-05  9.60612524E-05  9.57032098E-05  9.57032098E-05  9.52615374E-05  9.47176450E-05  9.47176450E-05  9.40609098E-05  9.40609098E-05  9.94323273E-05  9.84363433E-05  9.84363433E-05  9.64491119E-05  9.64491119E-05  9.58675882E-05  9.57453594E-05  9.57453594E-05  9.28755107E-05
      9.28755107E-05  9.37183504E-05  9.48926245E-05  9.48926245E-05  9.62364938E-05  9.62364938E-05  9.76126830E-05  9.89307446E-05  9.89307446E-05  1.00142453E-04  1.00142453E-04  1.01229583E-04  1.06869353E-04  1.06869353E-04  1.07795859E-04  1.07795859E-04  1.08595581E-04  1.09277942E-04  1.09277942E-04  1.09849105E-04
      1.09849105E-04  1.10311288E-04  1.10663204E-04  1.10663204E-04  1.10901186E-04  1.10901186E-04  1.11021676E-04  1.11023750E-04  1.11023750E-04  1.10911169E-04  1.10911169E-04  1.27115272E-04  1.33347014E-04  1.33347014E-04  1.33013848E-04  1.33013848E-04  1.32621266E-04  1.32192989E-04  1.32192989E-04  1.32192989E-04
      1.32192989E-04  1.32192989E-04  1.32192989E-04  1.32192989E-04  1.32192989E-04  1.32192989E-04  1.32192989E-04  1.32192989E-04  1.32192989E-04  1.32192989E-04  1.32192989E-04  1.32192989E-04  1.32192989E-04  1.32192989E-04  1.32192989E-04  1.32192989E-04  1.32192989E-04  1.32192989E-04  1.32192989E-04  1.32192989E-04
      1.32192989E-04  1.32192989E-04  1.32192989E-04  1.32192989E-04  1.32192989E-04  1.32192989E-04  1.32192989E-04  1.32192989E-04  1.32192989E-04  1.32192989E-04  1.32192989E-04  1.32192989E-04  1.32192989E-04  1.32192989E-04  1.32192989E-04  1.32192989E-04  1.32192989E-04  1.32192989E-04  1.32192989E-04  1.32192989E-04
      1.32192989E-04  1.32192989E-04  1.32192989E-04  1.32192989E-04  1.32192989E-04  1.32192989E-04  1.32192989E-04  1.32192989E-04  1.32192989E-04  1.32192989E-04  1.32192989E-04  1.32192989E-04  1.32192989E-04  1.32192989E-04  1.32192989E-04  1.32192989E-04  1.32192989E-04  1.32192989E-04  1.32192989E-04  1.32192989E-04
      1.32192989E-04  1.32192989E-04  1.32192989E-04  1.32192989E-04  1.32192989E-04  1.32192989E-04  1.32192989E-04  1.32192989E-04  1.32192989E-04  1.32192989E-04  1.32192989E-04  1.32192989E-04  1.32192989E-04  1.32192989E-04  1.32192989E-04  1.32192989E-04  1.32192989E-04  1.32192989E-04  1.32192989E-04  1.32192989E-04
      1.32192989E-04  1.32192989E-04  1.32192989E-04  1.32192989E-04  1.32192989E-04  1.32192989E-04  1.32192989E-04  1.32192989E-04  1.32192989E-04  1.32192989E-04  1.32192989E-04  1.32192989E-04  1.32192989E-04  1.32192989E-04
      3.36842750E-05  3.36843113E-05  3.65684100E-05  3.65684100E-05  3.65684500E-05  3.65684500E-05  3.65684500E-05  3.65684900E-05  3.65684900E-05  4.87479483E-05  4.87479483E-05  5.36867337E-05  5.48751923E-05  5.48751923E-05  5.48751923E-05  5.48751923E-05  5.13161649E-05  4.95947279E-05  4.95947279E-05  5.48783864E-05
      5.48783864E-05  5.39074681E-05  5.08646008E-05  5.08646008E-05  5.08647681E-05  5.08647681E-05  5.08649391E-05  5.08652156E-05  5.08652156E-05  5.08654957E-05  5.08654957E-05  5.08659432E-05  5.08664998E-05  5.08664998E-05  5.82072353E-05  5.82072353E-05  5.82074281E-05  5.82077482E-05  5.82077482E-05  5.82083230E-05
      5.82083230E-05  7.22419500E-05  7.22395707E-05  7.22395707E-05  1.14684313E-04  1.14684313E-04  1.14659830E-04  1.17936601E-04  1.17936601E-04  1.03920669E-04  1.03920669E-04  8.31229845E-05  9.66729203E-05  9.66729203E-05  9.66452208E-05  9.66452208E-05  9.77083255E-05  9.76715382E-05  9.76715382E-05  9.76304727E-05
      9.76304727E-05  9.75846051E-05  9.47945300E-05  9.47945300E-05  9.83826467E-05  9.83826467E-05  1.11501518E-04  1.03348269E-04  1.03348269E-04  1.03228456E-04  1.03228456E-04  9.85193838E-05  9.98663600E-05  9.98663600E-05  9.97130774E-05  9.97130774E-05  9.95348892E-05  9.93272479E-05  9.93272479E-05  9.90838016E-05
      9.90838016E-05  9.87964740E-05  9.60612524E-05  9.60612524E-05  9.57032098E-05  9.57032098E-05  9.52615374E-05  9.47176450E-05  9.47176450E-05  9.40609098E-05  9.40609098E-05  9.94323273E-05  9.84363433E-05  9.84363433E-05  9.64491119E-05  9.64491119E-05  9.58675882E-05  9.57453594E-05  9.57453594E-05  9.28755107E-05
      9.28755107E-05  9.37183504E-05  9.48926245E-05  9.48926245E-05  9.62364938E-05  9.62364938E-05  9.76126830E-05  9.89307446E-05  9.89307446E-05  1.00142453E-04  1.00142453E-04  1.01229583E-04  1.06869353E-04  1.06869353E-04  1.07795859E-04  1.07795859E-04  1.08595581E-04  1.09277942E-04  1.09277942E-04  1.09849105E-04
      1.09849105E-04  1.10311288E-04  1.10663204E-04  1.10663204E-04  1.10901186E-04  1.10901186E-04  1.11021676E-04  1.11023750E-04  1.11023750E-04  1.10911169E-04  1.10911169E-04  1.27115272E-04  1.33347014E-04  1.33347014E-04  1.33013848E-04  1.33013848E-04  1.32621266E-04  1.32192989E-04  1.32192989E-04  1.32192989E-04
      1.32192989E-04  1.32192989E-04  1.32192989E-04  1.32192989E-04  1.32192989E-04  1.32192989E-04  1.32192989E-04  1.32192989E-04  1.32192989E-04  1.32192989E-04  1.32192989E-04  1.32192989E-04  1.32192989E-04  1.32192989E-04  1.32192989E-04  1.32192989E-04  1.32192989E-04  1.32192989E-04  1.32192989E-04  1.32192989E-04
      1.32192989E-04  1.32192989E-04  1.32192989E-04  1.32192989E-04  1.32192989E-04  1.32192989E-04  1.32192989E-04  1.32192989E-04  1.32192989E-04  1.32192989E-04  1.32192989E-04  1.32192989E-04  1.32192989E-04  1.32192989E-04  1.32192989E-04  1.32192989E-04  1.32192989E-04  1.32192989E-04  1.32192989E-04  1.32192989E-04
      1.32192989E-04  1.32192989E-04  1.32192989E-04  1.32192989E-04  1.32192989E-04  1.32192989E-04  1.32192989E-04  1.32192989E-04  1.32192989E-04  1.32192989E-04  1.32192989E-04  1.32192989E-04  1.32192989E-04  1.32192989E-04  1.32192989E-04  1.32192989E-04  1.32192989E-04  1.32192989E-04  1.32192989E-04  1.32192989E-04
      1.32192989E-04  1.32192989E-04  1.32192989E-04  1.32192989E-04  1.32192989E-04  1.32192989E-04  1.32192989E-04  1.32192989E-04  1.32192989E-04  1.32192989E-04  1.32192989E-04  1.32192989E-04  1.32192989E-04  1.32192989E-04  1.32192989E-04  1.32192989E-04  1.32192989E-04  1.32192989E-04  1.32192989E-04  1.32192989E-04
      1.32192989E-04  1.32192989E-04  1.32192989E-04  1.32192989E-04  1.32192989E-04  1.32192989E-04  1.32192989E-04  1.32192989E-04  1.32192989E-04  1.32192989E-04  1.32192989E-04  1.32192989E-04  1.32192989E-04  1.32192989E-04
      3.36842750E-05  3.36843113E-05  3.65684100E-05  3.65684100E-05  3.65684500E-05  3.65684500E-05  3.65684500E-05  3.65684900E-05  3.65684900E-05  4.87479483E-05  4.87479483E-05  5.36867337E-05  5.48751923E-05  5.48751923E-05  5.48751923E-05  5.48751923E-05  5.13161649E-05  4.95947279E-05  4.95947279E-05  5.48783864E-05
      5.48783864E-05  5.39074681E-05  5.08646008E-05  5.08646008E-05  5.08647681E-05  5.08647681E-05  5.08649391E-05  5.08652156E-05  5.08652156E-05  5.08654957E-05  5.08654957E-05  5.08659432E-05  5.08664998E-05  5.08664998E-05  5.82072353E-05  5.82072353E-05  5.82074281E-05  5.82077482E-05  5.82077482E-05  5.82083230E-05
      5.82083230E-05  7.22419500E-05  7.22395707E-05  7.22395707E-05  1.14684313E-04  1.14684313E-04  1.14659830E-04  1.17936601E-04  1.17936601E-04  1.03920669E-04  1.03920669E-04  8.31229845E-05  9.66729203E-05  9.66729203E-05  9.66452208E-05  9.66452208E-05  9.77083255E-05  9.76715382E-05  9.76715382E-05  9.76304727E-05
      9.76304727E-05  9.75846051E-05  9.47945300E-05  9.47945300E-05  9.83826467E-05  9.83826467E-05  1.11501518E-04  1.03348269E-04  1.03348269E-04  1.03228456E-04  1.03228456E-04  9.85193838E-05  9.98663600E-05  9.98663600E-05  9.97130774E-05  9.97130774E-05  9.95348892E-05  9.93272479E-05  9.93272479E-05  9.90838016E-05
      9.90838016E-05  9.87964740E-05  9.60612524E-05  9.60612524E-05  9.57032098E-05  9.57032098E-05  9.52615374E-05  9.47176450E-05  9.47176450E-05  9.40609098E-05  9.40609098E-05  9.94323273E-05  9.84363433E-05  9.84363433E-05  9.64491119E-05  9.64491119E-05  9.58675882E-05  9.57453594E-05  9.57453594E-05  9.28755107E-05
      9.28755107E-05  9.37183504E-05  9.48926245E-05  9.48926245E-05  9.62364938E-05  9.62364938E-05  9.76126830E-05  9.89307446E-05  9.89307446E-05  1.00142453E-04  1.00142453E-04  1.01229583E-04  1.06869353E-04  1.06869353E-04  1.07795859E-04  1.07795859E-04  1.08595581E-04  1.09277942E-04  1.09277942E-04  1.09849105E-04
      1.09849105E-04  1.10311288E-04  1.10663204E-04  1.10663204E-04  1.10901186E-04  1.10901186E-04  1.11021676E-04  1.11023750E-04  1.11023750E-04  1.10911169E-04  1.10911169E-04  1.27115272E-04  1.33347014E-04  1.33347014E-04  1.33013848E-04  1.33013848E-04  1.32621266E-04  1.32192989E-04  1.32192989E-04  1.32192989E-04
      1.32192989E-04  1.32192989E-04  1.32192989E-04  1.32192989E-04  1.32192989E-04  1.32192989E-04  1.32192989E-04  1.32192989E-04  1.32192989E-04  1.32192989E-04  1.32192989E-04  1.32192989E-04  1.32192989E-04  1.32192989E-04  1.32192989E-04  1.32192989E-04  1.32192989E-04  1.32192989E-04  1.32192989E-04  1.32192989E-04
      1.32192989E-04  1.32192989E-04  1.32192989E-04  1.32192989E-04  1.32192989E-04  1.32192989E-04  1.32192989E-04  1.32192989E-04  1.32192989E-04  1.32192989E-04  1.32192989E-04  1.32192989E-04  1.32192989E-04  1.32192989E-04  1.32192989E-04  1.32192989E-04  1.32192989E-04  1.32192989E-04  1.32192989E-04  1.32192989E-04
      1.32192989E-04  1.32192989E-04  1.32192989E-04  1.32192989E-04  1.32192989E-04  1.32192989E-04  1.32192989E-04  1.32192989E-04  1.32192989E-04  1.32192989E-04  1.32192989E-04  1.32192989E-04  1.32192989E-04  1.32192989E-04  1.32192989E-04  1.32192989E-04  1.32192989E-04  1.32192989E-04  1.32192989E-04  1.32192989E-04
      1.32192989E-04  1.32192989E-04  1.32192989E-04  1.32192989E-04  1.32192989E-04  1.32192989E-04  1.32192989E-04  1.32192989E-04  1.32192989E-04  1.32192989E-04  1.32192989E-04  1.32192989E-04  1.32192989E-04  1.32192989E-04  1.32192989E-04  1.32192989E-04  1.32192989E-04  1.32192989E-04  1.32192989E-04  1.32192989E-04
      1.32192989E-04  1.32192989E-04  1.32192989E-04  1.32192989E-04  1.32192989E-04  1.32192989E-04  1.32192989E-04  1.32192989E-04  1.32192989E-04  1.32192989E-04  1.32192989E-04  1.32192989E-04  1.32192989E-04  1.32192989E-04
      3.36842750E-05  3.36843113E-05  3.65684100E-05  3.65684100E-05  3.65684500E-05  3.65684500E-05  3.65684500E-05  3.65684900E-05  3.65684900E-05  4.87479483E-05  4.87479483E-05  5.36867337E-05  5.48751923E-05  5.48751923E-05  5.48751923E-05  5.48751923E-05  5.13161649E-05  4.95947279E-05  4.95947279E-05  5.48783864E-05
      5.48783864E-05  5.39074681E-05  5.08646008E-05  5.08646008E-05  5.08647681E-05  5.08647681E-05  5.08649391E-05  5.08652156E-05  5.08652156E-05  5.08654957E-05  5.08654957E-05  5.08659432E-05  5.08664998E-05  5.08664998E-05  5.82072353E-05  5.82072353E-05  5.82074281E-05  5.82077482E-05  5.82077482E-05  5.82083230E-05
      5.82083230E-05  7.22419500E-05  7.22395707E-05  7.22395707E-05  1.14684313E-04  1.14684313E-04  1.14659830E-04  1.17936601E-04  1.17936601E-04  1.03920669E-04  1.03920669E-04  8.31229845E-05  9.66729203E-05  9.66729203E-05  9.66452208E-05  9.66452208E-05  9.77083255E-05  9.76715382E-05  9.76715382E-05  9.76304727E-05
      9.76304727E-05  9.75846051E-05  9.47945300E-05  9.47945300E-05  9.83826467E-05  9.83826467E-05  1.11501518E-04  1.03348269E-04  1.03348269E-04  1.03228456E-04  1.03228456E-04  9.85193838E-05  9.98663600E-05  9.98663600E-05  9.97130774E-05  9.97130774E-05  9.95348892E-05  9.93272479E-05  9.93272479E-05  9.90838016E-05
      9.90838016E-05  9.87964740E-05  9.60612524E-05  9.60612524E-05  9.57032098E-05  9.57032098E-05  9.52615374E-05  9.47176450E-05  9.47176450E-05  9.40609098E-05  9.40609098E-05  9.94323273E-05  9.84363433E-05  9.84363433E-05  9.64491119E-05  9.64491119E-05  9.58675882E-05  9.57453594E-05  9.57453594E-05  9.28755107E-05
      9.28755107E-05  9.37183504E-05  9.48926245E-05  9.48926245E-05  9.62364938E-05  9.62364938E-05  9.76126830E-05  9.89307446E-05  9.89307446E-05  1.00142453E-04  1.00142453E-04  1.01229583E-04  1.06869353E-04  1.06869353E-04  1.07795859E-04  1.07795859E-04  1.08595581E-04  1.09277942E-04  1.09277942E-04  1.09849105E-04
      1.09849105E-04  1.10311288E-04  1.10663204E-04  1.10663204E-04  1.10901186E-04  1.10901186E-04  1.11021676E-04  1.11023750E-04  1.11023750E-04  1.10911169E-04  1.10911169E-04  1.27115272E-04  1.33347014E-04  1.33347014E-04  1.33013848E-04  1.33013848E-04  1.32621266E-04  1.32192989E-04  1.32192989E-04  1.32192989E-04
      1.32192989E-04  1.32192989E-04  1.32192989E-04  1.32192989E-04  1.32192989E-04  1.32192989E-04  1.32192989E-04  1.32192989E-04  1.32192989E-04  1.32192989E-04  1.32192989E-04  1.32192989E-04  1.32192989E-04  1.32192989E-04  1.32192989E-04  1.32192989E-04  1.32192989E-04  1.32192989E-04  1.32192989E-04  1.32192989E-04
      1.32192989E-04  1.32192989E-04  1.32192989E-04  1.32192989E-04  1.32192989E-04  1.32192989E-04  1.32192989E-04  1.32192989E-04  1.32192989E-04  1.32192989E-04  1.32192989E-04  1.32192989E-04  1.32192989E-04  1.32192989E-04  1.32192989E-04  1.32192989E-04  1.32192989E-04  1.32192989E-04  1.32192989E-04  1.32192989E-04
      1.32192989E-04  1.32192989E-04  1.32192989E-04  1.32192989E-04  1.32192989E-04  1.32192989E-04  1.32192989E-04  1.32192989E-04  1.32192989E-04  1.32192989E-04  1.32192989E-04  1.32192989E-04  1.32192989E-04  1.32192989E-04  1.32192989E-04  1.32192989E-04  1.32192989E-04  1.32192989E-04  1.32192989E-04  1.32192989E-04
      1.32192989E-04  1.32192989E-04  1.32192989E-04  1.32192989E-04  1.32192989E-04  1.32192989E-04  1.32192989E-04  1.32192989E-04  1.32192989E-04  1.32192989E-04  1.32192989E-04  1.32192989E-04  1.32192989E-04  1.32192989E-04  1.32192989E-04  1.32192989E-04  1.32192989E-04  1.32192989E-04  1.32192989E-04  1.32192989E-04
      1.32192989E-04  1.32192989E-04  1.32192989E-04  1.32192989E-04  1.32192989E-04  1.32192989E-04  1.32192989E-04  1.32192989E-04  1.32192989E-04  1.32192989E-04  1.32192989E-04  1.32192989E-04  1.32192989E-04  1.32192989E-04
      3.36842750E-05  3.36843113E-05  3.65684100E-05  3.65684100E-05  3.65684500E-05  3.65684500E-05  3.65684500E-05  3.65684900E-05  3.65684900E-05  4.87479483E-05  4.87479483E-05  5.36867337E-05  5.48751923E-05  5.48751923E-05  5.48751923E-05  5.48751923E-05  5.13161649E-05  4.95947279E-05  4.95947279E-05  5.48783864E-05
      5.48783864E-05  5.39074681E-05  5.08646008E-05  5.08646008E-05  5.08647681E-05  5.08647681E-05  5.08649391E-05  5.08652156E-05  5.08652156E-05  5.08654957E-05  5.08654957E-05  5.08659432E-05  5.08664998E-05  5.08664998E-05  5.82072353E-05  5.82072353E-05  5.82074281E-05  5.82077482E-05  5.82077482E-05  5.82083230E-05
      5.82083230E-05  7.22419500E-05  7.22395707E-05  7.22395707E-05  1.14684313E-04  1.14684313E-04  1.14659830E-04  1.17936601E-04  1.17936601E-04  1.03920669E-04  1.03920669E-04  8.31229845E-05  9.66729203E-05  9.66729203E-05  9.66452208E-05  9.66452208E-05  9.77083255E-05  9.76715382E-05  9.76715382E-05  9.76304727E-05
      9.76304727E-05  9.75846051E-05  9.47945300E-05  9.47945300E-05  9.83826467E-05  9.83826467E-05  1.11501518E-04  1.03348269E-04  1.03348269E-04  1.03228456E-04  1.03228456E-04  9.85193838E-05  9.98663600E-05  9.98663600E-05  9.97130774E-05  9.97130774E-05  9.95348892E-05  9.93272479E-05  9.93272479E-05  9.90838016E-05
      9.90838016E-05  9.87964740E-05  9.60612524E-05  9.60612524E-05  9.57032098E-05  9.57032098E-05  9.52615374E-05  9.47176450E-05  9.47176450E-05  9.40609098E-05  9.40609098E-05  9.94323273E-05  9.84363433E-05  9.84363433E-05  9.64491119E-05  9.64491119E-05  9.58675882E-05  9.57453594E-05  9.57453594E-05  9.28755107E-05
      9.28755107E-05  9.37183504E-05  9.48926245E-05  9.48926245E-05  9.62364938E-05  9.62364938E-05  9.76126830E-05  9.89307446E-05  9.89307446E-05  1.00142453E-04  1.00142453E-04  1.01229583E-04  1.06869353E-04  1.06869353E-04  1.07795859E-04  1.07795859E-04  1.08595581E-04  1.09277942E-04  1.09277942E-04  1.09849105E-04
      1.09849105E-04  1.10311288E-04  1.10663204E-04  1.10663204E-04  1.10901186E-04  1.10901186E-04  1.11021676E-04  1.11023750E-04  1.11023750E-04  1.10911169E-04  1.10911169E-04  1.27115272E-04  1.33347014E-04  1.33347014E-04  1.33013848E-04  1.33013848E-04  1.32621266E-04  1.32192989E-04  1.32192989E-04  1.32192989E-04
      1.32192989E-04  1.32192989E-04  1.32192989E-04  1.32192989E-04  1.32192989E-04  1.32192989E-04  1.32192989E-04  1.32192989E-04  1.32192989E-04  1.32192989E-04  1.32192989E-04  1.32192989E-04  1.32192989E-04  1.32192989E-04  1.32192989E-04  1.32192989E-04  1.32192989E-04  1.32192989E-04  1.32192989E-04  1.32192989E-04
      1.32192989E-04  1.32192989E-04  1.32192989E-04  1.32192989E-04  1.32192989E-04  1.32192989E-04  1.32192989E-04  1.32192989E-04  1.32192989E-04  1.32192989E-04  1.32192989E-04  1.32192989E-04  1.32192989E-04  1.32192989E-04  1.32192989E-04  1.32192989E-04  1.32192989E-04  1.32192989E-04  1.32192989E-04  1.32192989E-04
      1.32192989E-04  1.32192989E-04  1.32192989E-04  1.32192989E-04  1.32192989E-04  1.32192989E-04  1.32192989E-04  1.32192989E-04  1.32192989E-04  1.32192989E-04  1.32192989E-04  1.32192989E-04  1.32192989E-04  1.32192989E-04  1.32192989E-04  1.32192989E-04  1.32192989E-04  1.32192989E-04  1.32192989E-04  1.32192989E-04
      1.32192989E-04  1.32192989E-04  1.32192989E-04  1.32192989E-04  1.32192989E-04  1.32192989E-04  1.32192989E-04  1.32192989E-04  1.32192989E-04  1.32192989E-04  1.32192989E-04  1.32192989E-04  1.32192989E-04  1.32192989E-04  1.32192989E-04  1.32192989E-04  1.32192989E-04  1.32192989E-04  1.32192989E-04  1.32192989E-04
      1.32192989E-04  1.32192989E-04  1.32192989E-04  1.32192989E-04  1.32192989E-04  1.32192989E-04  1.32192989E-04  1.32192989E-04  1.32192989E-04  1.32192989E-04  1.32192989E-04  1.32192989E-04  1.32192989E-04  1.32192989E-04
      3.36842750E-05  3.36843113E-05  3.65684100E-05  3.65684100E-05  3.65684500E-05  3.65684500E-05  3.65684500E-05  3.65684900E-05  3.65684900E-05  4.87479483E-05  4.87479483E-05  5.36867337E-05  5.48751923E-05  5.48751923E-05  5.48751923E-05  5.48751923E-05  5.13161649E-05  4.95947279E-05  4.95947279E-05  5.48783864E-05
      5.48783864E-05  5.39074681E-05  5.08646008E-05  5.08646008E-05  5.08647681E-05  5.08647681E-05  5.08649391E-05  5.08652156E-05  5.08652156E-05  5.08654957E-05  5.08654957E-05  5.08659432E-05  5.08664998E-05  5.08664998E-05  5.82072353E-05  5.82072353E-05  5.82074281E-05  5.82077482E-05  5.82077482E-05  5.82083230E-05
      5.82083230E-05  7.22419500E-05  7.22395707E-05  7.22395707E-05  1.14684313E-04  1.14684313E-04  1.14659830E-04  1.17936601E-04  1.17936601E-04  1.03920669E-04  1.03920669E-04  8.31229845E-05  9.66729203E-05  9.66729203E-05  9.66452208E-05  9.66452208E-05  9.77083255E-05  9.76715382E-05  9.76715382E-05  9.76304727E-05
      9.76304727E-05  9.75846051E-05  9.47945300E-05  9.47945300E-05  9.83826467E-05  9.83826467E-05  1.11501518E-04  1.03348269E-04  1.03348269E-04  1.03228456E-04  1.03228456E-04  9.85193838E-05  9.98663600E-05  9.98663600E-05  9.97130774E-05  9.97130774E-05  9.95348892E-05  9.93272479E-05  9.93272479E-05  9.90838016E-05
      9.90838016E-05  9.87964740E-05  9.60612524E-05  9.60612524E-05  9.57032098E-05  9.57032098E-05  9.52615374E-05  9.47176450E-05  9.47176450E-05  9.40609098E-05  9.40609098E-05  9.94323273E-05  9.84363433E-05  9.84363433E-05  9.64491119E-05  9.64491119E-05  9.58675882E-05  9.57453594E-05  9.57453594E-05  9.28755107E-05
      9.28755107E-05  9.37183504E-05  9.48926245E-05  9.48926245E-05  9.62364938E-05  9.62364938E-05  9.76126830E-05  9.89307446E-05  9.89307446E-05  1.00142453E-04  1.00142453E-04  1.01229583E-04  1.06869353E-04  1.06869353E-04  1.07795859E-04  1.07795859E-04  1.08595581E-04  1.09277942E-04  1.09277942E-04  1.09849105E-04
      1.09849105E-04  1.10311288E-04  1.10663204E-04  1.10663204E-04  1.10901186E-04  1.10901186E-04  1.11021676E-04  1.11023750E-04  1.11023750E-04  1.10911169E-04  1.10911169E-04  1.27115272E-04  1.33347014E-04  1.33347014E-04  1.33013848E-04  1.33013848E-04  1.32621266E-04  1.32192989E-04  1.32192989E-04  1.32192989E-04
      1.32192989E-04  1.32192989E-04  1.32192989E-04  1.32192989E-04  1.32192989E-04  1.32192989E-04  1.32192989E-04  1.32192989E-04  1.32192989E-04  1.32192989E-04  1.32192989E-04  1.32192989E-04  1.32192989E-04  1.32192989E-04  1.32192989E-04  1.32192989E-04  1.32192989E-04  1.32192989E-04  1.32192989E-04  1.32192989E-04
      1.32192989E-04  1.32192989E-04  1.32192989E-04  1.32192989E-04  1.32192989E-04  1.32192989E-04  1.32192989E-04  1.32192989E-04  1.32192989E-04  1.32192989E-04  1.32192989E-04  1.32192989E-04  1.32192989E-04  1.32192989E-04  1.32192989E-04  1.32192989E-04  1.32192989E-04  1.32192989E-04  1.32192989E-04  1.32192989E-04
      1.32192989E-04  1.32192989E-04  1.32192989E-04  1.32192989E-04  1.32192989E-04  1.32192989E-04  1.32192989E-04  1.32192989E-04  1.32192989E-04  1.32192989E-04  1.32192989E-04  1.32192989E-04  1.32192989E-04  1.32192989E-04  1.32192989E-04  1.32192989E-04  1.32192989E-04  1.32192989E-04  1.32192989E-04  1.32192989E-04
      1.32192989E-04  1.32192989E-04  1.32192989E-04  1.32192989E-04  1.32192989E-04  1.32192989E-04  1.32192989E-04  1.32192989E-04  1.32192989E-04  1.32192989E-04  1.32192989E-04  1.32192989E-04  1.32192989E-04  1.32192989E-04  1.32192989E-04  1.32192989E-04  1.32192989E-04  1.32192989E-04  1.32192989E-04  1.32192989E-04
      1.32192989E-04  1.32192989E-04  1.32192989E-04  1.32192989E-04  1.32192989E-04  1.32192989E-04  1.32192989E-04  1.32192989E-04  1.32192989E-04  1.32192989E-04  1.32192989E-04  1.32192989E-04  1.32192989E-04  1.32192989E-04
      3.36842750E-05  3.36843113E-05  3.65684100E-05  3.65684100E-05  3.65684500E-05  3.65684500E-05  3.65684500E-05  3.65684900E-05  3.65684900E-05  4.87479483E-05  4.87479483E-05  5.36867337E-05  5.48751923E-05  5.48751923E-05  5.48751923E-05  5.48751923E-05  5.13161649E-05  4.95947279E-05  4.95947279E-05  5.48783864E-05
      5.48783864E-05  5.39074681E-05  5.08646008E-05  5.08646008E-05  5.08647681E-05  5.08647681E-05  5.08649391E-05  5.08652156E-05  5.08652156E-05  5.08654957E-05  5.08654957E-05  5.08659432E-05  5.08664998E-05  5.08664998E-05  5.82072353E-05  5.82072353E-05  5.82074281E-05  5.82077482E-05  5.82077482E-05  5.82083230E-05
      5.82083230E-05  7.22419500E-05  7.22395707E-05  7.22395707E-05  1.14684313E-04  1.14684313E-04  1.14659830E-04  1.17936601E-04  1.17936601E-04  1.03920669E-04  1.03920669E-04  8.31229845E-05  9.66729203E-05  9.66729203E-05  9.66452208E-05  9.66452208E-05  9.77083255E-05  9.76715382E-05  9.76715382E-05  9.76304727E-05
      9.76304727E-05  9.75846051E-05  9.47945300E-05  9.47945300E-05  9.83826467E-05  9.83826467E-05  1.11501518E-04  1.03348269E-04  1.03348269E-04  1.03228456E-04  1.03228456E-04  9.85193838E-05  9.98663600E-05  9.98663600E-05  9.97130774E-05  9.97130774E-05  9.95348892E-05  9.93272479E-05  9.93272479E-05  9.90838016E-05
      9.90838016E-05  9.87964740E-05  9.60612524E-05  9.60612524E-05  9.57032098E-05  9.57032098E-05  9.52615374E-05  9.47176450E-05  9.47176450E-05  9.40609098E-05  9.40609098E-05  9.94323273E-05  9.84363433E-05  9.84363433E-05  9.64491119E-05  9.64491119E-05  9.58675882E-05  9.57453594E-05  9.57453594E-05  9.28755107E-05
      9.28755107E-05  9.37183504E-05  9.48926245E-05  9.48926245E-05  9.62364938E-05  9.62364938E-05  9.76126830E-05  9.89307446E-05  9.89307446E-05  1.00142453E-04  1.00142453E-04  1.01229583E-04  1.06869353E-04  1.06869353E-04  1.07795859E-04  1.07795859E-04  1.08595581E-04  1.09277942E-04  1.09277942E-04  1.09849105E-04
      1.09849105E-04  1.10311288E-04  1.10663204E-04  1.10663204E-04  1.10901186E-04  1.10901186E-04  1.11021676E-04  1.11023750E-04  1.11023750E-04  1.10911169E-04  1.10911169E-04  1.27115272E-04  1.33347014E-04  1.33347014E-04  1.33013848E-04  1.33013848E-04  1.32621266E-04  1.32192989E-04  1.32192989E-04  1.32192989E-04
      1.32192989E-04  1.32192989E-04  1.32192989E-04  1.32192989E-04  1.32192989E-04  1.32192989E-04  1.32192989E-04  1.32192989E-04  1.32192989E-04  1.32192989E-04  1.32192989E-04  1.32192989E-04  1.32192989E-04  1.32192989E-04  1.32192989E-04  1.32192989E-04  1.32192989E-04  1.32192989E-04  1.32192989E-04  1.32192989E-04
      1.32192989E-04  1.32192989E-04  1.32192989E-04  1.32192989E-04  1.32192989E-04  1.32192989E-04  1.32192989E-04  1.32192989E-04  1.32192989E-04  1.32192989E-04  1.32192989E-04  1.32192989E-04  1.32192989E-04  1.32192989E-04  1.32192989E-04  1.32192989E-04  1.32192989E-04  1.32192989E-04  1.32192989E-04  1.32192989E-04