BEGIN options
  SAVE_FLOWS
END options

BEGIN dimensions
  MAXBOUND  281
END dimensions

BEGIN period  1
  3 109 115      -0.00913759
  3 90 122      -0.00433229
  3 106 102      -0.00120240
  3 106 103      -0.01802905
  3 88 94  -7.36681887E-04
  3 87 99      -0.01063921
  3 103 101      -0.01352007
  3 114 102      -0.00790589
  3 78 117      -0.00495412
  3 103 65      -0.00383454
  3 105 65      -0.01462427
  3 113 74      -0.02368861
  3 98 82      -0.02338258
  3 98 79  -8.87874176E-04
  3 100 70      -0.00760195
  3 103 42      -0.04297939
  3 108 47      -0.00362649
  3 103 27      -0.00353678
  3 72 73      -0.00887373
  3 99 44      -0.00407300
  3 97 119      -0.00839365
  3 77 86      -0.01678393
  3 59 100  -4.81988838E-04
  3 113 67  -5.40969051E-04
  3 102 51  -9.51293760E-05
  3 99 46  -1.14155251E-04
  3 114 48      -0.00129316
  3 121 113      -0.00948354
  3 137 121      -0.01234592
  3 129 117      -0.00450289
  3 134 86      -0.00279408
  3 114 103      -0.00665690
  3 122 106      -0.00289422
  3 123 82      -0.00620316
  3 118 74  -2.17846271E-05
  3 127 68      -0.01136771
  3 96 121      -0.00407788
  3 85 127      -0.00881837
  3 104 118      -0.01169032
  3 96 119      -0.00828057
  3 98 125      -0.01047974
  3 88 123      -0.01826113
  3 105 127      -0.00747121
  3 138 118      -0.01079354
  3 135 112      -0.00134434
  3 121 86      -0.00407132
  3 136 100      -0.00789346
  3 129 95      -0.00729154
  3 132 95      -0.00733206
  3 134 97      -0.00828494
  3 135 98      -0.00909358
  3 127 105      -0.00438981
  3 123 95      -0.01084928
  3 132 86  -9.30365297E-04
  3 133 102      -0.01212129
  3 134 88      -0.00822089
  3 114 73      -0.01117596
  3 132 63      -0.00677010
  3 135 53      -0.01167057
  3 120 49      -0.01803574
  3 143 57      -0.01236682
  3 136 55      -0.00100285
  3 124 50      -0.01822045
  3 123 52      -0.00106215
  3 110 115      -0.00779344
  3 89 115      -0.00245798
  3 111 107  -9.51293760E-06
  3 91 94  -1.36352106E-04
  3 107 92      -0.01218246
  3 94 89      -0.00358688
  3 99 92  -3.67833587E-06
  3 91 88      -0.00565088
  3 108 99      -0.00133942
  3 73 114      -0.00422130
  3 78 121      -0.00477559
  3 67 111      -0.00433143
  3 78 118      -0.00495294
  3 73 114      -0.01609821
  3 70 119      -0.00599505
  3 67 117      -0.00937288
  3 64 116      -0.01470605
  3 80 92      -0.01688559
  3 77 106      -0.00794930
  3 50 97      -0.00688118
  3 76 93  -3.80517504E-05
  3 70 109      -0.00452353
  3 59 94  -2.16197362E-04
  3 70 83      -0.00150520
  3 93 72      -0.00905410
  3 101 81      -0.00901164
  3 105 82  -1.74530695E-04
  3 111 71      -0.00116920
  3 95 73      -0.01088401
  3 99 82  -4.27416286E-04
  3 96 63      -0.01101376
  3 95 76      -0.01008333
  3 103 41      -0.02730654
  3 103 41      -0.00204871
  3 102 60  -5.06659056E-04
  3 112 49  -3.80517504E-04
  3 103 30      -0.02161574
  3 101 35      -0.01389374
  3 112 22  -1.61244292E-04
  3 78 83      -0.00894882
  3 80 78      -0.00320329
  3 69 78  -3.32952816E-04
  3 70 83      -0.00870687
  3 140 107      -0.01708222
  3 124 50      -0.01972707
  3 82 120      -0.00385813
  3 87 94      -0.00271100
  3 91 88      -0.00565088
  3 65 121      -0.00853244
  3 67 111      -0.01112833
  3 68 110      -0.00529097
  3 67 117      -0.00443610
  3 68 110      -0.00511162
  3 71 93      -0.00256355
  3 70 109      -0.00641521
  3 65 93  -7.59069001E-04
  3 105 40      -0.02256938
  3 46 129      -0.00972501
  3 129 86  -3.98592085E-04
  3 132 91  -3.80517504E-04
  3 132 91  -2.37823440E-05
  3 118 74  -2.16894977E-04
  3 65 101  -1.90258752E-04
  3 141 122  -2.02942669E-04
  3 108 32  -5.07356672E-04
  3 91 91  -1.26839168E-04
  3 68 77  -4.75646880E-04
  3 108 47  -7.13470320E-05
  3 111 48  -3.80517504E-04
  3 148 103      -0.00846651
  3 82 112  -5.39066464E-04
  3 47 98  -1.90258752E-04
  3 106 41  -2.06113648E-05
  3 113 37      -0.00153355
  3 117 65  -3.80517504E-04
  3 117 44  -4.28082192E-04
  3 106 19      -0.00108457
  3 110 34  -6.34830036E-04
  3 103 29  -1.18911720E-04
  3 125 75      -0.00107211
  3 113 54      -0.00761035
  3 52 104  -2.28310502E-04
  3 42 106      -0.00194857
  3 111 44  -5.70776256E-04
  3 119 66  -8.87874176E-05
  3 71 81  -5.89548453E-04
  3 69 76  -5.70776256E-04
  3 64 116      -0.00751522
  3 89 116      -0.00294803
  3 139 112      -0.00283584
  3 139 77  -7.51204972E-05
  3 143 57      -0.01119482
  3 46 129      -0.01019980
  3 51 97  -1.54268138E-04
  1 87 99      -0.01852448
  1 104 26  -7.87037037E-05
  1 109 53  -9.69748858E-04
  1 152 91      -0.00879287
  1 129 117      -0.00235661
  1 129 117      -0.00945152
  1 129 117      -0.01003656
  1 129 117      -0.00911726
  1 152 91      -0.00560458
  1 150 92      -0.00367526
  1 152 92      -0.01485769
  1 129 117      -0.00625856
  1 137 121      -0.05300685
  1 140 107      -0.00368760
  1 166 69      -0.02064181
  1 154 85      -0.00379665
  1 167 69  -6.92097920E-04
  1 171 62      -0.00790512
  1 162 77  -6.31151700E-04
  1 116 7      -0.00924978
  1 95 127  -2.45846017E-04
  1 105 40      -0.01522726
  1 101 54      -0.00893690
  1 109 42      -0.11600828
  1 103 30      -0.06838499
  1 95 127  -2.05701421E-04
  1 145 118  -2.21968544E-04
  1 102 69  -2.04845256E-04
  1 95 117      -0.00158549
  1 78 108      -0.00253678
  1 85 111  -6.65905632E-04
  1 114 72  -8.68848300E-05
  1 109 25  -4.66133942E-04
  1 110 12  -1.85660832E-04
  1 102 38  -1.80745814E-04
  1 103 23  -2.85388128E-04
  1 104 27  -3.10755961E-04
  1 101 28  -6.34195840E-04
  1 105 27  -5.07356672E-04
  1 102 25  -1.90258752E-04
  1 107 27  -4.42351598E-04
  1 105 26  -1.98503298E-04
  1 103 28  -5.67605277E-04
  1 104 29  -1.10984272E-04
  1 104 25  -2.12455606E-04
  1 146 101  -1.38381532E-04
  1 144 112  -1.26839168E-04
  1 144 106  -2.91254439E-04
  1 78 96      -0.00190259
  1 80 100  -7.61035008E-04
  1 82 100  -4.75646880E-05
  1 80 102  -6.34195840E-04
  1 76 91  -1.01471334E-04
  1 78 94  -6.34195840E-04
  1 80 99  -9.51293760E-05
  1 81 102  -1.77574835E-04
  1 74 92  -6.18340944E-04
  1 109 44  -3.80517504E-04
  1 112 43  -3.80517504E-04
  1 112 52  -3.80517504E-04
  1 105 46  -3.80517504E-04
  1 108 50  -3.80517504E-04
  1 109 50  -4.92770167E-04
  1 66 114  -1.90258752E-04
  1 67 113  -2.85388128E-04
  1 64 115  -2.66362253E-04
  1 65 110  -1.14155251E-04
  1 68 107  -1.90258752E-04
  1 70 110  -7.22983257E-04
  1 68 116  -1.26839168E-04
  1 69 115  -2.53678336E-05
  1 67 114  -6.34195840E-04
  1 52 105  -1.90258752E-04
  1 51 105  -2.37823440E-04
  1 116 50  -3.55149670E-04
  1 76 119  -1.20497210E-04
  1 76 125  -1.52207002E-04
  1 76 118  -5.83460173E-04
  1 76 120      -0.00126839
  1 76 120      -0.00126839
  1 75 120  -2.53678336E-04
  1 81 115  -9.51293760E-04
  1 82 114  -3.80517504E-04
  1 85 114  -4.56621005E-04
  1 81 116  -5.77118214E-04
  1 82 117  -3.17097920E-04
  1 113 65  -2.02942669E-04
  1 91 114  -5.07356672E-04
  1 92 112  -1.52207002E-04
  1 92 110  -5.07356672E-04
  1 92 109  -6.34195840E-04
  1 90 108  -2.66362253E-04
  1 92 107  -1.26839168E-04
  1 90 108  -1.01471334E-04
  1 91 115  -1.90258752E-04
  1 93 109  -1.01471334E-04
  1 92 114  -7.48351091E-05
  1 92 109      -0.00122400
  1 85 114  -8.62506342E-04
  1 157 91  -5.70776256E-04
  1 98 64  -1.58548960E-04
  1 87 105  -5.07356672E-04
  1 85 105  -1.58548960E-04
  1 85 103  -1.71232877E-04
  1 141 119      -0.00232024
  1 105 29  -2.85388128E-04
  1 103 29  -4.71841705E-04
  1 92 94  -2.85388128E-04
  1 97 100  -8.16812532E-04
  1 97 84  -2.85388128E-04
  1 109 51  -1.90258752E-04
  1 114 64  -9.51293760E-04
  1 90 111  -5.07356672E-04
  1 91 112  -1.90258752E-04
  1 91 112  -1.21765601E-04
  1 86 112  -7.29325216E-04
  1 104 43      -0.00406028
  1 142 114      -0.01716086
  1 116 10      -0.00532725
  1 138 110      -0.02072073
  1 107 42  -2.18797565E-04
  1 148 99      -0.01106298
  1 116 23  -5.70776256E-04
END period  1

