BEGIN options
  SAVE_FLOWS
END options

BEGIN dimensions
  MAXBOUND  504
END dimensions

BEGIN period  1
  3 109 115      -0.00228440
  5 109 115      -0.00228440
  7 109 115      -0.00228440
  9 109 115      -0.00228440
  3 90 122      -0.00108307
  5 90 122      -0.00108307
  7 90 122      -0.00108307
  9 90 122      -0.00108307
  3 106 102  -3.00600901E-04
  5 106 102  -3.00600901E-04
  7 106 102  -3.00600901E-04
  9 106 102  -3.00600901E-04
  3 106 103      -0.00450726
  5 106 103      -0.00450726
  7 106 103      -0.00450726
  9 106 103      -0.00450726
  3 88 94  -1.84170472E-04
  5 88 94  -1.84170472E-04
  7 88 94  -1.84170472E-04
  9 88 94  -1.84170472E-04
  3 87 99      -0.00265980
  5 87 99      -0.00265980
  7 87 99      -0.00265980
  9 87 99      -0.00265980
  3 103 101      -0.00338002
  5 103 101      -0.00338002
  7 103 101      -0.00338002
  9 103 101      -0.00338002
  3 114 102      -0.00197647
  5 114 102      -0.00197647
  7 114 102      -0.00197647
  9 114 102      -0.00197647
  3 78 117      -0.00165137
  5 78 117      -0.00165137
  7 78 117      -0.00165137
  3 103 65      -0.00383454
  3 105 65      -0.00731214
  5 105 65      -0.00731214
  3 113 74      -0.01184430
  5 113 74      -0.01184430
  3 98 82      -0.00779419
  5 98 82      -0.00779419
  7 98 82      -0.00779419
  3 98 79  -4.43937088E-04
  5 98 79  -4.43937088E-04
  3 100 70      -0.00380097
  5 100 70      -0.00380097
  3 103 42      -0.02148969
  5 103 42      -0.02148969
  3 108 47      -0.00181325
  5 108 47      -0.00181325
  3 103 27      -0.00353678
  3 72 73      -0.00887373
  3 99 44      -0.00407300
  3 97 119      -0.00209841
  5 97 119      -0.00209841
  7 97 119      -0.00209841
  9 97 119      -0.00209841
  3 77 86      -0.00839196
  5 77 86      -0.00839196
  3 59 100  -2.40994419E-04
  5 59 100  -2.40994419E-04
  3 113 67  -2.70484526E-04
  5 113 67  -2.70484526E-04
  3 102 51  -9.51293760E-05
  3 99 46  -1.14155251E-04
  3 114 48  -6.46578513E-04
  5 114 48  -6.46578513E-04
  3 121 113      -0.00237089
  5 121 113      -0.00237089
  7 121 113      -0.00237089
  9 121 113      -0.00237089
  3 137 121      -0.00308648
  5 137 121      -0.00308648
  7 137 121      -0.00308648
  9 137 121      -0.00308648
  3 129 117      -0.00112572
  5 129 117      -0.00112572
  7 129 117      -0.00112572
  9 129 117      -0.00112572
  3 134 86      -0.00279408
  3 114 103      -0.00166423
  5 114 103      -0.00166423
  7 114 103      -0.00166423
  9 114 103      -0.00166423
  3 122 106  -7.23554033E-04
  5 122 106  -7.23554033E-04
  7 122 106  -7.23554033E-04
  9 122 106  -7.23554033E-04
  3 123 82      -0.00620316
  3 118 74  -1.08923135E-05
  5 118 74  -1.08923135E-05
  3 127 68      -0.00568385
  5 127 68      -0.00568385
  3 96 121      -0.00101947
  5 96 121      -0.00101947
  7 96 121      -0.00101947
  9 96 121      -0.00101947
  3 85 127      -0.00220459
  5 85 127      -0.00220459
  7 85 127      -0.00220459
  9 85 127      -0.00220459
  3 104 118      -0.00292258
  5 104 118      -0.00292258
  7 104 118      -0.00292258
  9 104 118      -0.00292258
  3 96 119      -0.00207014
  5 96 119      -0.00207014
  7 96 119      -0.00207014
  9 96 119      -0.00207014
  3 98 125      -0.00261993
  5 98 125      -0.00261993
  7 98 125      -0.00261993
  9 98 125      -0.00261993
  3 88 123      -0.00456528
  5 88 123      -0.00456528
  7 88 123      -0.00456528
  9 88 123      -0.00456528
  3 105 127      -0.00186780
  5 105 127      -0.00186780
  7 105 127      -0.00186780
  9 105 127      -0.00186780
  3 138 118      -0.00269838
  5 138 118      -0.00269838
  7 138 118      -0.00269838
  9 138 118      -0.00269838
  3 135 112  -3.36084158E-04
  5 135 112  -3.36084158E-04
  7 135 112  -3.36084158E-04
  9 135 112  -3.36084158E-04
  3 121 86      -0.00203566
  5 121 86      -0.00203566
  3 136 100      -0.00263115
  5 136 100      -0.00263115
  7 136 100      -0.00263115
  3 129 95      -0.00243051
  5 129 95      -0.00243051
  7 129 95      -0.00243051
  3 132 95      -0.00244402
  5 132 95      -0.00244402
  7 132 95      -0.00244402
  3 134 97      -0.00276165
  5 134 97      -0.00276165
  7 134 97      -0.00276165
  3 135 98      -0.00303119
  5 135 98      -0.00303119
  7 135 98      -0.00303119
  3 127 105      -0.00109745
  5 127 105      -0.00109745
  7 127 105      -0.00109745
  9 127 105      -0.00109745
  3 123 95      -0.00271232
  5 123 95      -0.00271232
  7 123 95      -0.00271232
  9 123 95      -0.00271232
  3 132 86  -9.30365297E-04
  3 133 102      -0.00404043
  5 133 102      -0.00404043
  7 133 102      -0.00404043
  3 134 88      -0.00822089
  3 114 73      -0.00558798
  5 114 73      -0.00558798
  3 132 63      -0.00338505
  5 132 63      -0.00338505
  3 135 53      -0.00583528
  5 135 53      -0.00583528
  3 120 49      -0.00901787
  5 120 49      -0.00901787
  3 143 57      -0.01236682
  3 136 55  -5.01426941E-04
  5 136 55  -5.01426941E-04
  3 124 50      -0.00911022
  5 124 50      -0.00911022
  3 123 52  -5.31075596E-04
  5 123 52  -5.31075596E-04
  3 110 115      -0.00194836
  5 110 115      -0.00194836
  7 110 115      -0.00194836
  9 110 115      -0.00194836
  3 89 115  -6.14496131E-04
  5 89 115  -6.14496131E-04
  7 89 115  -6.14496131E-04
  9 89 115  -6.14496131E-04
  3 111 107  -2.37823440E-06
  5 111 107  -2.37823440E-06
  7 111 107  -2.37823440E-06
  9 111 107  -2.37823440E-06
  3 91 94  -3.40880264E-05
  5 91 94  -3.40880264E-05
  7 91 94  -3.40880264E-05
  9 91 94  -3.40880264E-05
  3 107 92      -0.00304561
  5 107 92      -0.00304561
  7 107 92      -0.00304561
  9 107 92      -0.00304561
  3 94 89      -0.00119563
  5 94 89      -0.00119563
  7 94 89      -0.00119563
  3 99 92  -9.19583968E-07
  5 99 92  -9.19583968E-07
  7 99 92  -9.19583968E-07
  9 99 92  -9.19583968E-07
  3 91 88      -0.00188363
  5 91 88      -0.00188363
  7 91 88      -0.00188363
  3 108 99  -3.34855403E-04
  5 108 99  -3.34855403E-04
  7 108 99  -3.34855403E-04
  9 108 99  -3.34855403E-04
  3 73 114      -0.00140710
  5 73 114      -0.00140710
  7 73 114      -0.00140710
  3 78 121      -0.00159186
  5 78 121      -0.00159186
  7 78 121      -0.00159186
  3 67 111      -0.00216572
  5 67 111      -0.00216572
  3 78 118      -0.00165098
  5 78 118      -0.00165098
  7 78 118      -0.00165098
  3 73 114      -0.00536607
  5 73 114      -0.00536607
  7 73 114      -0.00536607
  3 70 119      -0.00299753
  5 70 119      -0.00299753
  3 67 117      -0.00468644
  5 67 117      -0.00468644
  3 64 116      -0.00735303
  5 64 116      -0.00735303
  3 80 92      -0.00844280
  5 80 92      -0.00844280
  3 77 106      -0.00264977
  5 77 106      -0.00264977
  7 77 106      -0.00264977
  3 50 97      -0.00688118
  3 76 93  -1.90258752E-05
  5 76 93  -1.90258752E-05
  3 70 109      -0.00150784
  5 70 109      -0.00150784
  7 70 109      -0.00150784
  3 59 94  -2.16197362E-04
  3 70 83      -0.00150520
  3 93 72      -0.00301803
  5 93 72      -0.00301803
  7 93 72      -0.00301803
  3 101 81      -0.00300388
  5 101 81      -0.00300388
  7 101 81      -0.00300388
  3 105 82  -5.81768984E-05
  5 105 82  -5.81768984E-05
  7 105 82  -5.81768984E-05
  3 111 71  -5.84601725E-04
  5 111 71  -5.84601725E-04
  3 95 73      -0.00544200
  5 95 73      -0.00544200
  3 99 82  -1.42472095E-04
  5 99 82  -1.42472095E-04
  7 99 82  -1.42472095E-04
  3 96 63      -0.00550688
  5 96 63      -0.00550688
  3 95 76      -0.00336111
  5 95 76      -0.00336111
  7 95 76      -0.00336111
  3 103 41      -0.01365327
  5 103 41      -0.01365327
  3 103 41      -0.00102435
  5 103 41      -0.00102435
  3 102 60  -2.53329528E-04
  5 102 60  -2.53329528E-04
  3 112 49  -1.90258752E-04
  5 112 49  -1.90258752E-04
  3 103 30      -0.02161574
  3 101 35      -0.00694687
  5 101 35      -0.00694687
  3 112 22  -1.61244292E-04
  3 78 83      -0.00447441
  5 78 83      -0.00447441
  3 80 78      -0.00160165
  5 80 78      -0.00160165
  3 69 78  -3.32952816E-04
  3 70 83      -0.00870687
  3 140 107      -0.00569407
  5 140 107      -0.00569407
  7 140 107      -0.00569407
  3 124 50      -0.00986354
  5 124 50      -0.00986354
  3 82 120  -9.64532598E-04
  5 82 120  -9.64532598E-04
  7 82 120  -9.64532598E-04
  9 82 120  -9.64532598E-04
  3 87 94  -6.77749239E-04
  5 87 94  -6.77749239E-04
  7 87 94  -6.77749239E-04
  9 87 94  -6.77749239E-04
  3 91 88      -0.00188363
  5 91 88      -0.00188363
  7 91 88      -0.00188363
  3 65 121      -0.00284415
  5 65 121      -0.00284415
  7 65 121      -0.00284415
  3 67 111      -0.00556416
  5 67 111      -0.00556416
  3 68 110      -0.00264548
  5 68 110      -0.00264548
  3 67 117      -0.00221805
  5 67 117      -0.00221805
  3 68 110      -0.00255581
  5 68 110      -0.00255581
  3 71 93      -0.00128177
  5 71 93      -0.00128177
  3 70 109      -0.00213840
  5 70 109      -0.00213840
  7 70 109      -0.00213840
  3 65 93  -7.59069001E-04
  3 105 40      -0.02256938
  3 46 129      -0.00486251
  5 46 129      -0.00486251
  3 129 86  -3.98592085E-04
  3 132 91  -1.90258752E-04
  5 132 91  -1.90258752E-04
  3 132 91  -1.18911720E-05
  5 132 91  -1.18911720E-05
  3 118 74  -1.08447489E-04
  5 118 74  -1.08447489E-04
  3 65 101  -9.51293760E-05
  5 65 101  -9.51293760E-05
  3 141 122  -5.07356672E-05
  5 141 122  -5.07356672E-05
  7 141 122  -5.07356672E-05
  9 141 122  -5.07356672E-05
  3 108 32  -5.07356672E-04
  3 91 91  -4.22797226E-05
  5 91 91  -4.22797226E-05
  7 91 91  -4.22797226E-05
  3 68 77  -4.75646880E-04
  3 108 47  -3.56735160E-05
  5 108 47  -3.56735160E-05
  3 111 48  -1.90258752E-04
  5 111 48  -1.90258752E-04
  3 148 103      -0.00423326
  5 148 103      -0.00423326
  3 82 112  -1.79688821E-04
  5 82 112  -1.79688821E-04
  7 82 112  -1.79688821E-04
  3 47 98  -1.90258752E-04
  3 106 41  -2.06113648E-05
  3 113 37      -0.00153355
  3 117 65  -1.90258752E-04
  5 117 65  -1.90258752E-04
  3 117 44  -2.14041096E-04
  5 117 44  -2.14041096E-04
  3 106 19      -0.00108457
  3 110 34  -6.34830036E-04
  3 103 29  -1.18911720E-04
  3 125 75  -5.36054033E-04
  5 125 75  -5.36054033E-04
  3 113 54      -0.00380518
  5 113 54      -0.00380518
  3 52 104  -2.28310502E-04
  3 42 106  -9.74283359E-04
  5 42 106  -9.74283359E-04
  3 111 44  -2.85388128E-04
  5 111 44  -2.85388128E-04
  3 119 66  -4.43937088E-05
  5 119 66  -4.43937088E-05
  3 71 81  -5.89548453E-04
  3 69 76  -5.70776256E-04
  3 64 116      -0.00375761
  5 64 116      -0.00375761
  3 89 116  -7.37006913E-04
  5 89 116  -7.37006913E-04
  7 89 116  -7.37006913E-04
  9 89 116  -7.37006913E-04
  3 139 112  -9.45279469E-04
  5 139 112  -9.45279469E-04
  7 139 112  -9.45279469E-04
  3 139 77  -7.51204972E-05
  3 143 57      -0.01119482
  3 46 129      -0.00509990
  5 46 129      -0.00509990
  3 51 97  -1.54268138E-04
  1 87 99      -0.01852448
  1 104 26  -7.87037037E-05
  1 109 53  -9.69748858E-04
  1 152 91      -0.00879287
  1 129 117      -0.00235661
  1 129 117      -0.00945152
  1 129 117      -0.01003656
  1 129 117      -0.00911726
  1 152 91      -0.00560458
  1 150 92      -0.00367526
  1 152 92      -0.01485769
  1 129 117      -0.00625856
  1 137 121      -0.05300685
  1 140 107      -0.00368760
  1 166 69      -0.02064181
  1 154 85      -0.00379665
  1 167 69  -6.92097920E-04
  1 171 62      -0.00790512
  1 162 77  -6.31151700E-04
  1 116 7      -0.00924978
  1 95 127  -2.45846017E-04
  1 105 40      -0.01522726
  1 101 54      -0.00893690
  1 109 42      -0.11600828
  1 103 30      -0.06838499
  1 95 127  -2.05701421E-04
  1 145 118  -2.21968544E-04
  1 102 69  -2.04845256E-04
  1 95 117      -0.00158549
  1 78 108      -0.00253678
  1 85 111  -6.65905632E-04
  1 114 72  -8.68848300E-05
  1 109 25  -4.66133942E-04
  1 110 12  -1.85660832E-04
  1 102 38  -1.80745814E-04
  1 103 23  -2.85388128E-04
  1 104 27  -3.10755961E-04
  1 101 28  -6.34195840E-04
  1 105 27  -5.07356672E-04
  1 102 25  -1.90258752E-04
  1 107 27  -4.42351598E-04
  1 105 26  -1.98503298E-04
  1 103 28  -5.67605277E-04
  1 104 29  -1.10984272E-04
  1 104 25  -2.12455606E-04
  1 146 101  -1.38381532E-04
  1 144 112  -1.26839168E-04
  1 144 106  -2.91254439E-04
  1 78 96      -0.00190259
  1 80 100  -7.61035008E-04
  1 82 100  -4.75646880E-05
  1 80 102  -6.34195840E-04
  1 76 91  -1.01471334E-04
  1 78 94  -6.34195840E-04
  1 80 99  -9.51293760E-05
  1 81 102  -1.77574835E-04
  1 74 92  -6.18340944E-04
  1 109 44  -3.80517504E-04
  1 112 43  -3.80517504E-04
  1 112 52  -3.80517504E-04
  1 105 46  -3.80517504E-04
  1 108 50  -3.80517504E-04
  1 109 50  -4.92770167E-04
  1 66 114  -1.90258752E-04
  1 67 113  -2.85388128E-04
  1 64 115  -2.66362253E-04
  1 65 110  -1.14155251E-04
  1 68 107  -1.90258752E-04
  1 70 110  -7.22983257E-04
  1 68 116  -1.26839168E-04
  1 69 115  -2.53678336E-05
  1 67 114  -6.34195840E-04
  1 52 105  -1.90258752E-04
  1 51 105  -2.37823440E-04
  1 116 50  -3.55149670E-04
  1 76 119  -1.20497210E-04
  1 76 125  -1.52207002E-04
  1 76 118  -5.83460173E-04
  1 76 120      -0.00126839
  1 76 120      -0.00126839
  1 75 120  -2.53678336E-04
  1 81 115  -9.51293760E-04
  1 82 114  -3.80517504E-04
  1 85 114  -4.56621005E-04
  1 81 116  -5.77118214E-04
  1 82 117  -3.17097920E-04
  1 113 65  -2.02942669E-04
  1 91 114  -5.07356672E-04
  1 92 112  -1.52207002E-04
  1 92 110  -5.07356672E-04
  1 92 109  -6.34195840E-04
  1 90 108  -2.66362253E-04
  1 92 107  -1.26839168E-04
  1 90 108  -1.01471334E-04
  1 91 115  -1.90258752E-04
  1 93 109  -1.01471334E-04
  1 92 114  -7.48351091E-05
  1 92 109      -0.00122400
  1 85 114  -8.62506342E-04
  1 157 91  -5.70776256E-04
  1 98 64  -1.58548960E-04
  1 87 105  -5.07356672E-04
  1 85 105  -1.58548960E-04
  1 85 103  -1.71232877E-04
  1 141 119      -0.00232024
  1 105 29  -2.85388128E-04
  1 103 29  -4.71841705E-04
  1 92 94  -2.85388128E-04
  1 97 100  -8.16812532E-04
  1 97 84  -2.85388128E-04
  1 109 51  -1.90258752E-04
  1 114 64  -9.51293760E-04
  1 90 111  -5.07356672E-04
  1 91 112  -1.90258752E-04
  1 91 112  -1.21765601E-04
  1 86 112  -7.29325216E-04
  1 104 43      -0.00406028
  1 142 114      -0.01716086
  1 116 10      -0.00532725
  1 138 110      -0.02072073
  1 107 42  -2.18797565E-04
  1 148 99      -0.01106298
  1 116 23  -5.70776256E-04
END period  1

