BEGIN options
  BUDGET  FILEOUT  test_Plio_multi.cbc
  HEAD  FILEOUT  test_Plio_multi.hds
END options

BEGIN period  1
  SAVE  HEAD  LAST
  SAVE  BUDGET  LAST
  PRINT  BUDGET  ALL
END period  1

