BEGIN options
  SAVE_FLOWS
END options

BEGIN griddata
  icelltype
    CONSTANT  0
  k  LAYERED
    CONSTANT  6.00000000E-04
    CONSTANT  2.50000000E-09
    CONSTANT  5.00000000E-05
    CONSTANT  2.50000000E-09
    CONSTANT  5.00000000E-05
    CONSTANT  2.50000000E-09
    CONSTANT  5.00000000E-05
    CONSTANT  2.50000000E-09
    CONSTANT  5.00000000E-05
    CONSTANT  1.00000000E-05
END griddata

