BEGIN options
  SAVE_FLOWS
END options

BEGIN dimensions
  MAXBOUND  504
END dimensions

BEGIN period  1
  4 109 115      -0.00228440
  6 109 115      -0.00228440
  8 109 115      -0.00228440
  10 109 115      -0.00228440
  4 90 122      -0.00108307
  6 90 122      -0.00108307
  8 90 122      -0.00108307
  10 90 122      -0.00108307
  4 106 102  -3.00600901E-04
  6 106 102  -3.00600901E-04
  8 106 102  -3.00600901E-04
  10 106 102  -3.00600901E-04
  4 106 103      -0.00450726
  6 106 103      -0.00450726
  8 106 103      -0.00450726
  10 106 103      -0.00450726
  4 88 94  -1.84170472E-04
  6 88 94  -1.84170472E-04
  8 88 94  -1.84170472E-04
  10 88 94  -1.84170472E-04
  4 87 99      -0.00265980
  6 87 99      -0.00265980
  8 87 99      -0.00265980
  10 87 99      -0.00265980
  4 103 101      -0.00338002
  6 103 101      -0.00338002
  8 103 101      -0.00338002
  10 103 101      -0.00338002
  4 114 102      -0.00197647
  6 114 102      -0.00197647
  8 114 102      -0.00197647
  10 114 102      -0.00197647
  4 78 117      -0.00165137
  6 78 117      -0.00165137
  8 78 117      -0.00165137
  4 103 65      -0.00383454
  4 105 65      -0.00731214
  6 105 65      -0.00731214
  4 113 74      -0.01184430
  6 113 74      -0.01184430
  4 98 82      -0.00779419
  6 98 82      -0.00779419
  8 98 82      -0.00779419
  4 98 79  -4.43937088E-04
  6 98 79  -4.43937088E-04
  4 100 70      -0.00380097
  6 100 70      -0.00380097
  4 103 42      -0.02148969
  6 103 42      -0.02148969
  4 108 47      -0.00181325
  6 108 47      -0.00181325
  4 103 27      -0.00353678
  4 72 73      -0.00887373
  4 99 44      -0.00407300
  4 97 119      -0.00209841
  6 97 119      -0.00209841
  8 97 119      -0.00209841
  10 97 119      -0.00209841
  4 77 86      -0.00839196
  6 77 86      -0.00839196
  4 59 100  -2.40994419E-04
  6 59 100  -2.40994419E-04
  4 113 67  -2.70484526E-04
  6 113 67  -2.70484526E-04
  4 102 51  -9.51293760E-05
  4 99 46  -1.14155251E-04
  4 114 48  -6.46578513E-04
  6 114 48  -6.46578513E-04
  4 121 113      -0.00237089
  6 121 113      -0.00237089
  8 121 113      -0.00237089
  10 121 113      -0.00237089
  4 137 121      -0.00308648
  6 137 121      -0.00308648
  8 137 121      -0.00308648
  10 137 121      -0.00308648
  4 129 117      -0.00112572
  6 129 117      -0.00112572
  8 129 117      -0.00112572
  10 129 117      -0.00112572
  4 134 86      -0.00279408
  4 114 103      -0.00166423
  6 114 103      -0.00166423
  8 114 103      -0.00166423
  10 114 103      -0.00166423
  4 122 106  -7.23554033E-04
  6 122 106  -7.23554033E-04
  8 122 106  -7.23554033E-04
  10 122 106  -7.23554033E-04
  4 123 82      -0.00620316
  4 118 74  -1.08923135E-05
  6 118 74  -1.08923135E-05
  4 127 68      -0.00568385
  6 127 68      -0.00568385
  4 96 121      -0.00101947
  6 96 121      -0.00101947
  8 96 121      -0.00101947
  10 96 121      -0.00101947
  4 85 127      -0.00220459
  6 85 127      -0.00220459
  8 85 127      -0.00220459
  10 85 127      -0.00220459
  4 104 118      -0.00292258
  6 104 118      -0.00292258
  8 104 118      -0.00292258
  10 104 118      -0.00292258
  4 96 119      -0.00207014
  6 96 119      -0.00207014
  8 96 119      -0.00207014
  10 96 119      -0.00207014
  4 98 125      -0.00261993
  6 98 125      -0.00261993
  8 98 125      -0.00261993
  10 98 125      -0.00261993
  4 88 123      -0.00456528
  6 88 123      -0.00456528
  8 88 123      -0.00456528
  10 88 123      -0.00456528
  4 105 127      -0.00186780
  6 105 127      -0.00186780
  8 105 127      -0.00186780
  10 105 127      -0.00186780
  4 138 118      -0.00269838
  6 138 118      -0.00269838
  8 138 118      -0.00269838
  10 138 118      -0.00269838
  4 135 112  -3.36084158E-04
  6 135 112  -3.36084158E-04
  8 135 112  -3.36084158E-04
  10 135 112  -3.36084158E-04
  4 121 86      -0.00203566
  6 121 86      -0.00203566
  4 136 100      -0.00263115
  6 136 100      -0.00263115
  8 136 100      -0.00263115
  4 129 95      -0.00243051
  6 129 95      -0.00243051
  8 129 95      -0.00243051
  4 132 95      -0.00244402
  6 132 95      -0.00244402
  8 132 95      -0.00244402
  4 134 97      -0.00276165
  6 134 97      -0.00276165
  8 134 97      -0.00276165
  4 135 98      -0.00303119
  6 135 98      -0.00303119
  8 135 98      -0.00303119
  4 127 105      -0.00109745
  6 127 105      -0.00109745
  8 127 105      -0.00109745
  10 127 105      -0.00109745
  4 123 95      -0.00271232
  6 123 95      -0.00271232
  8 123 95      -0.00271232
  10 123 95      -0.00271232
  4 132 86  -9.30365297E-04
  4 133 102      -0.00404043
  6 133 102      -0.00404043
  8 133 102      -0.00404043
  4 134 88      -0.00822089
  4 114 73      -0.00558798
  6 114 73      -0.00558798
  4 132 63      -0.00338505
  6 132 63      -0.00338505
  4 135 53      -0.00583528
  6 135 53      -0.00583528
  4 120 49      -0.00901787
  6 120 49      -0.00901787
  4 143 57      -0.01236682
  4 136 55  -5.01426941E-04
  6 136 55  -5.01426941E-04
  4 124 50      -0.00911022
  6 124 50      -0.00911022
  4 123 52  -5.31075596E-04
  6 123 52  -5.31075596E-04
  4 110 115      -0.00194836
  6 110 115      -0.00194836
  8 110 115      -0.00194836
  10 110 115      -0.00194836
  4 89 115  -6.14496131E-04
  6 89 115  -6.14496131E-04
  8 89 115  -6.14496131E-04
  10 89 115  -6.14496131E-04
  4 111 107  -2.37823440E-06
  6 111 107  -2.37823440E-06
  8 111 107  -2.37823440E-06
  10 111 107  -2.37823440E-06
  4 91 94  -3.40880264E-05
  6 91 94  -3.40880264E-05
  8 91 94  -3.40880264E-05
  10 91 94  -3.40880264E-05
  4 107 92      -0.00304561
  6 107 92      -0.00304561
  8 107 92      -0.00304561
  10 107 92      -0.00304561
  4 94 89      -0.00119563
  6 94 89      -0.00119563
  8 94 89      -0.00119563
  4 99 92  -9.19583968E-07
  6 99 92  -9.19583968E-07
  8 99 92  -9.19583968E-07
  10 99 92  -9.19583968E-07
  4 91 88      -0.00188363
  6 91 88      -0.00188363
  8 91 88      -0.00188363
  4 108 99  -3.34855403E-04
  6 108 99  -3.34855403E-04
  8 108 99  -3.34855403E-04
  10 108 99  -3.34855403E-04
  4 73 114      -0.00140710
  6 73 114      -0.00140710
  8 73 114      -0.00140710
  4 78 121      -0.00159186
  6 78 121      -0.00159186
  8 78 121      -0.00159186
  4 67 111      -0.00216572
  6 67 111      -0.00216572
  4 78 118      -0.00165098
  6 78 118      -0.00165098
  8 78 118      -0.00165098
  4 73 114      -0.00536607
  6 73 114      -0.00536607
  8 73 114      -0.00536607
  4 70 119      -0.00299753
  6 70 119      -0.00299753
  4 67 117      -0.00468644
  6 67 117      -0.00468644
  4 64 116      -0.00735303
  6 64 116      -0.00735303
  4 80 92      -0.00844280
  6 80 92      -0.00844280
  4 77 106      -0.00264977
  6 77 106      -0.00264977
  8 77 106      -0.00264977
  4 50 97      -0.00688118
  4 76 93  -1.90258752E-05
  6 76 93  -1.90258752E-05
  4 70 109      -0.00150784
  6 70 109      -0.00150784
  8 70 109      -0.00150784
  4 59 94  -2.16197362E-04
  4 70 83      -0.00150520
  4 93 72      -0.00301803
  6 93 72      -0.00301803
  8 93 72      -0.00301803
  4 101 81      -0.00300388
  6 101 81      -0.00300388
  8 101 81      -0.00300388
  4 105 82  -5.81768984E-05
  6 105 82  -5.81768984E-05
  8 105 82  -5.81768984E-05
  4 111 71  -5.84601725E-04
  6 111 71  -5.84601725E-04
  4 95 73      -0.00544200
  6 95 73      -0.00544200
  4 99 82  -1.42472095E-04
  6 99 82  -1.42472095E-04
  8 99 82  -1.42472095E-04
  4 96 63      -0.00550688
  6 96 63      -0.00550688
  4 95 76      -0.00336111
  6 95 76      -0.00336111
  8 95 76      -0.00336111
  4 103 41      -0.01365327
  6 103 41      -0.01365327
  4 103 41      -0.00102435
  6 103 41      -0.00102435
  4 102 60  -2.53329528E-04
  6 102 60  -2.53329528E-04
  4 112 49  -1.90258752E-04
  6 112 49  -1.90258752E-04
  4 103 30      -0.02161574
  4 101 35      -0.00694687
  6 101 35      -0.00694687
  4 112 22  -1.61244292E-04
  4 78 83      -0.00447441
  6 78 83      -0.00447441
  4 80 78      -0.00160165
  6 80 78      -0.00160165
  4 69 78  -3.32952816E-04
  4 70 83      -0.00870687
  4 140 107      -0.00569407
  6 140 107      -0.00569407
  8 140 107      -0.00569407
  4 124 50      -0.00986354
  6 124 50      -0.00986354
  4 82 120  -9.64532598E-04
  6 82 120  -9.64532598E-04
  8 82 120  -9.64532598E-04
  10 82 120  -9.64532598E-04
  4 87 94  -6.77749239E-04
  6 87 94  -6.77749239E-04
  8 87 94  -6.77749239E-04
  10 87 94  -6.77749239E-04
  4 91 88      -0.00188363
  6 91 88      -0.00188363
  8 91 88      -0.00188363
  4 65 121      -0.00284415
  6 65 121      -0.00284415
  8 65 121      -0.00284415
  4 67 111      -0.00556416
  6 67 111      -0.00556416
  4 68 110      -0.00264548
  6 68 110      -0.00264548
  4 67 117      -0.00221805
  6 67 117      -0.00221805
  4 68 110      -0.00255581
  6 68 110      -0.00255581
  4 71 93      -0.00128177
  6 71 93      -0.00128177
  4 70 109      -0.00213840
  6 70 109      -0.00213840
  8 70 109      -0.00213840
  4 65 93  -7.59069001E-04
  4 105 40      -0.02256938
  4 46 129      -0.00486251
  6 46 129      -0.00486251
  4 129 86  -3.98592085E-04
  4 132 91  -1.90258752E-04
  6 132 91  -1.90258752E-04
  4 132 91  -1.18911720E-05
  6 132 91  -1.18911720E-05
  4 118 74  -1.08447489E-04
  6 118 74  -1.08447489E-04
  4 65 101  -9.51293760E-05
  6 65 101  -9.51293760E-05
  4 141 122  -5.07356672E-05
  6 141 122  -5.07356672E-05
  8 141 122  -5.07356672E-05
  10 141 122  -5.07356672E-05
  4 108 32  -5.07356672E-04
  4 91 91  -4.22797226E-05
  6 91 91  -4.22797226E-05
  8 91 91  -4.22797226E-05
  4 68 77  -4.75646880E-04
  4 108 47  -3.56735160E-05
  6 108 47  -3.56735160E-05
  4 111 48  -1.90258752E-04
  6 111 48  -1.90258752E-04
  4 148 103      -0.00423326
  6 148 103      -0.00423326
  4 82 112  -1.79688821E-04
  6 82 112  -1.79688821E-04
  8 82 112  -1.79688821E-04
  4 47 98  -1.90258752E-04
  4 106 41  -2.06113648E-05
  4 113 37      -0.00153355
  4 117 65  -1.90258752E-04
  6 117 65  -1.90258752E-04
  4 117 44  -2.14041096E-04
  6 117 44  -2.14041096E-04
  4 106 19      -0.00108457
  4 110 34  -6.34830036E-04
  4 103 29  -1.18911720E-04
  4 125 75  -5.36054033E-04
  6 125 75  -5.36054033E-04
  4 113 54      -0.00380518
  6 113 54      -0.00380518
  4 52 104  -2.28310502E-04
  4 42 106  -9.74283359E-04
  6 42 106  -9.74283359E-04
  4 111 44  -2.85388128E-04
  6 111 44  -2.85388128E-04
  4 119 66  -4.43937088E-05
  6 119 66  -4.43937088E-05
  4 71 81  -5.89548453E-04
  4 69 76  -5.70776256E-04
  4 64 116      -0.00375761
  6 64 116      -0.00375761
  4 89 116  -7.37006913E-04
  6 89 116  -7.37006913E-04
  8 89 116  -7.37006913E-04
  10 89 116  -7.37006913E-04
  4 139 112  -9.45279469E-04
  6 139 112  -9.45279469E-04
  8 139 112  -9.45279469E-04
  4 139 77  -7.51204972E-05
  4 143 57      -0.01119482
  4 46 129      -0.00509990
  6 46 129      -0.00509990
  4 51 97  -1.54268138E-04
  2 87 99      -0.01852448
  2 104 26  -7.87037037E-05
  2 109 53  -9.69748858E-04
  2 152 91      -0.00879287
  2 129 117      -0.00235661
  2 129 117      -0.00945152
  2 129 117      -0.01003656
  2 129 117      -0.00911726
  2 152 91      -0.00560458
  2 150 92      -0.00367526
  2 152 92      -0.01485769
  2 129 117      -0.00625856
  2 137 121      -0.05300685
  2 140 107      -0.00368760
  2 166 69      -0.02064181
  2 154 85      -0.00379665
  2 167 69  -6.92097920E-04
  2 171 62      -0.00790512
  2 162 77  -6.31151700E-04
  2 116 7      -0.00924978
  2 95 127  -2.45846017E-04
  2 105 40      -0.01522726
  2 101 54      -0.00893690
  2 109 42      -0.11600828
  2 103 30      -0.06838499
  2 95 127  -2.05701421E-04
  2 145 118  -2.21968544E-04
  2 102 69  -2.04845256E-04
  2 95 117      -0.00158549
  2 78 108      -0.00253678
  2 85 111  -6.65905632E-04
  2 114 72  -8.68848300E-05
  2 109 25  -4.66133942E-04
  2 110 12  -1.85660832E-04
  2 102 38  -1.80745814E-04
  2 103 23  -2.85388128E-04
  2 104 27  -3.10755961E-04
  2 101 28  -6.34195840E-04
  2 105 27  -5.07356672E-04
  2 102 25  -1.90258752E-04
  2 107 27  -4.42351598E-04
  2 105 26  -1.98503298E-04
  2 103 28  -5.67605277E-04
  2 104 29  -1.10984272E-04
  2 104 25  -2.12455606E-04
  2 146 101  -1.38381532E-04
  2 144 112  -1.26839168E-04
  2 144 106  -2.91254439E-04
  2 78 96      -0.00190259
  2 80 100  -7.61035008E-04
  2 82 100  -4.75646880E-05
  2 80 102  -6.34195840E-04
  2 76 91  -1.01471334E-04
  2 78 94  -6.34195840E-04
  2 80 99  -9.51293760E-05
  2 81 102  -1.77574835E-04
  2 74 92  -6.18340944E-04
  2 109 44  -3.80517504E-04
  2 112 43  -3.80517504E-04
  2 112 52  -3.80517504E-04
  2 105 46  -3.80517504E-04
  2 108 50  -3.80517504E-04
  2 109 50  -4.92770167E-04
  2 66 114  -1.90258752E-04
  2 67 113  -2.85388128E-04
  2 64 115  -2.66362253E-04
  2 65 110  -1.14155251E-04
  2 68 107  -1.90258752E-04
  2 70 110  -7.22983257E-04
  2 68 116  -1.26839168E-04
  2 69 115  -2.53678336E-05
  2 67 114  -6.34195840E-04
  2 52 105  -1.90258752E-04
  2 51 105  -2.37823440E-04
  2 116 50  -3.55149670E-04
  2 76 119  -1.20497210E-04
  2 76 125  -1.52207002E-04
  2 76 118  -5.83460173E-04
  2 76 120      -0.00126839
  2 76 120      -0.00126839
  2 75 120  -2.53678336E-04
  2 81 115  -9.51293760E-04
  2 82 114  -3.80517504E-04
  2 85 114  -4.56621005E-04
  2 81 116  -5.77118214E-04
  2 82 117  -3.17097920E-04
  2 113 65  -2.02942669E-04
  2 91 114  -5.07356672E-04
  2 92 112  -1.52207002E-04
  2 92 110  -5.07356672E-04
  2 92 109  -6.34195840E-04
  2 90 108  -2.66362253E-04
  2 92 107  -1.26839168E-04
  2 90 108  -1.01471334E-04
  2 91 115  -1.90258752E-04
  2 93 109  -1.01471334E-04
  2 92 114  -7.48351091E-05
  2 92 109      -0.00122400
  2 85 114  -8.62506342E-04
  2 157 91  -5.70776256E-04
  2 98 64  -1.58548960E-04
  2 87 105  -5.07356672E-04
  2 85 105  -1.58548960E-04
  2 85 103  -1.71232877E-04
  2 141 119      -0.00232024
  2 105 29  -2.85388128E-04
  2 103 29  -4.71841705E-04
  2 92 94  -2.85388128E-04
  2 97 100  -8.16812532E-04
  2 97 84  -2.85388128E-04
  2 109 51  -1.90258752E-04
  2 114 64  -9.51293760E-04
  2 90 111  -5.07356672E-04
  2 91 112  -1.90258752E-04
  2 91 112  -1.21765601E-04
  2 86 112  -7.29325216E-04
  2 104 43      -0.00406028
  2 142 114      -0.01716086
  2 116 10      -0.00532725
  2 138 110      -0.02072073
  2 107 42  -2.18797565E-04
  2 148 99      -0.01106298
  2 116 23  -5.70776256E-04
END period  1

