BEGIN options
  SAVE_FLOWS
END options

BEGIN dimensions
  MAXBOUND  16
END dimensions

BEGIN period  1
  3 113 32     115.00000000
  3 114 33     115.00000000
  3 114 34     115.00000000
  3 115 35     115.00000000
  3 116 36     115.00000000
  3 117 37     115.00000000
  3 118 37     115.00000000
  3 119 37     115.00000000
  3 120 38     115.00000000
  3 120 41     115.00000000
  3 120 42     115.00000000
  3 121 39     115.00000000
  3 121 40     115.00000000
  3 121 43     115.00000000
  3 121 44     115.00000000
  3 122 45     115.00000000
END period  1

