BEGIN options
  SAVE_FLOWS
END options

BEGIN dimensions
  MAXBOUND  980
END dimensions

BEGIN period  1
  3 115 85      62.50000000       1.00000000
  3 115 86      58.50000000       1.00000000
  3 115 87      49.00000000       1.00000000
  3 115 88      46.50000000       1.00000000
  3 115 89      44.00000000       1.00000000
  1 115 90      42.00000000       1.00000000
  1 115 91      39.00000000       1.00000000
  1 115 92      38.00000000       1.00000000
  1 115 93      35.50000000       1.00000000
  1 115 94      33.00000000       1.00000000
  1 115 95      28.50000000       1.00000000
  1 115 96      29.00000000       1.00000000
  1 115 97      27.50000000       1.00000000
  1 115 98      27.50000000       1.00000000
  1 115 99      22.50000000       1.00000000
  1 115 100      23.00000000       1.00000000
  1 115 101      23.50000000       1.00000000
  1 115 102      22.00000000       1.00000000
  1 115 103      20.50000000       1.00000000
  1 115 104      19.00000000       1.00000000
  1 115 105      19.50000000       1.00000000
  1 115 106      17.00000000       1.00000000
  1 115 107      14.50000000       1.00000000
  1 115 108      11.50000000       1.00000000
  1 115 109       9.00000000       1.00000000
  1 115 110       8.50000000       1.00000000
  1 115 111       9.00000000       1.00000000
  1 115 112       8.00000000       1.00000000
  1 115 113       6.00000000       1.00000000
  1 115 114       5.50000000       1.00000000
  1 115 115       3.50000000       1.00000000
  1 115 116       2.00000000       1.00000000
  1 115 117       3.00000000       1.00000000
  1 115 118       2.50000000       1.00000000
  1 115 119       1.00000000       1.00000000
  3 116 85      65.00000000       1.00000000
  3 116 86      68.50000000       1.00000000
  3 116 87      54.50000000       1.00000000
  3 116 88      52.50000000       1.00000000
  3 116 89      46.00000000       1.00000000
  1 116 90      43.00000000       1.00000000
  1 116 91      39.50000000       1.00000000
  1 116 92      38.00000000       1.00000000
  1 116 93      38.50000000       1.00000000
  1 116 94      33.50000000       1.00000000
  1 116 95      29.00000000       1.00000000
  1 116 96      27.00000000       1.00000000
  1 116 97      26.50000000       1.00000000
  1 116 98      22.00000000       1.00000000
  1 116 99      21.50000000       1.00000000
  1 116 100      20.00000000       1.00000000
  1 116 101      21.50000000       1.00000000
  1 116 102      20.50000000       1.00000000
  1 116 103      20.00000000       1.00000000
  1 116 104      20.50000000       1.00000000
  1 116 105      20.00000000       1.00000000
  1 116 106      16.00000000       1.00000000
  1 116 107      16.00000000       1.00000000
  1 116 108      12.50000000       1.00000000
  1 116 109      11.50000000       1.00000000
  1 116 110      10.00000000       1.00000000
  1 116 111       9.50000000       1.00000000
  1 116 112       9.00000000       1.00000000
  1 116 113       8.50000000       1.00000000
  1 116 114       7.00000000       1.00000000
  1 116 115       4.00000000       1.00000000
  1 116 116       3.00000000       1.00000000
  1 116 117       4.00000000       1.00000000
  1 116 118       3.00000000       1.00000000
  1 116 119       2.00000000       1.00000000
  3 117 85      62.50000000       1.00000000
  3 117 86      61.50000000       1.00000000
  3 117 87      57.50000000       1.00000000
  3 117 88      54.00000000       1.00000000
  1 117 89      48.50000000       1.00000000
  1 117 90      44.50000000       1.00000000
  1 117 91      39.00000000       1.00000000
  1 117 92      38.50000000       1.00000000
  1 117 93      34.00000000       1.00000000
  1 117 94      29.50000000       1.00000000
  1 117 95      28.50000000       1.00000000
  1 117 96      29.00000000       1.00000000
  1 117 97      28.00000000       1.00000000
  1 117 98      21.00000000       1.00000000
  1 117 99      19.50000000       1.00000000
  1 117 100      19.50000000       1.00000000
  1 117 101      18.50000000       1.00000000
  1 117 102      19.00000000       1.00000000
  1 117 103      19.00000000       1.00000000
  1 117 104      20.00000000       1.00000000
  1 117 105      19.50000000       1.00000000
  1 117 106      20.00000000       1.00000000
  1 117 107      16.00000000       1.00000000
  1 117 108      14.00000000       1.00000000
  1 117 109      14.00000000       1.00000000
  1 117 110      11.50000000       1.00000000
  1 117 111      10.00000000       1.00000000
  1 117 112       9.00000000       1.00000000
  1 117 113       7.50000000       1.00000000
  1 117 114       6.00000000       1.00000000
  1 117 115       5.00000000       1.00000000
  1 117 116       5.00000000       1.00000000
  1 117 117       4.00000000       1.00000000
  1 117 118       3.00000000       1.00000000
  1 117 119       2.00000000       1.00000000
  3 118 85      55.50000000       1.00000000
  1 118 86      57.00000000       1.00000000
  3 118 87      59.00000000       1.00000000
  3 118 88      53.50000000       1.00000000
  1 118 89      46.50000000       1.00000000
  1 118 90      42.50000000       1.00000000
  1 118 91      39.00000000       1.00000000
  1 118 92      34.50000000       1.00000000
  1 118 93      30.00000000       1.00000000
  1 118 94      34.00000000       1.00000000
  3 118 95      35.50000000       1.00000000
  3 118 96      32.00000000       1.00000000
  3 118 97      32.50000000       1.00000000
  1 118 98      31.00000000       1.00000000
  1 118 99      25.50000000       1.00000000
  1 118 100      23.00000000       1.00000000
  1 118 101      22.00000000       1.00000000
  1 118 102      20.00000000       1.00000000
  1 118 103      18.00000000       1.00000000
  1 118 104      19.00000000       1.00000000
  1 118 105      19.50000000       1.00000000
  1 118 106      19.00000000       1.00000000
  1 118 107      16.50000000       1.00000000
  1 118 108      16.00000000       1.00000000
  1 118 109      14.00000000       1.00000000
  1 118 110      13.00000000       1.00000000
  1 118 111      11.00000000       1.00000000
  1 118 112      10.00000000       1.00000000
  1 118 113       8.50000000       1.00000000
  1 118 114       7.00000000       1.00000000
  1 118 115       6.00000000       1.00000000
  1 118 116       5.00000000       1.00000000
  1 118 117       5.00000000       1.00000000
  1 118 118       4.00000000       1.00000000
  1 118 119       3.00000000       1.00000000
  3 119 85      48.50000000       1.00000000
  1 119 86      52.50000000       1.00000000
  1 119 87      52.00000000       1.00000000
  1 119 88      50.00000000       1.00000000
  1 119 89      43.00000000       1.00000000
  1 119 90      39.00000000       1.00000000
  1 119 91      35.00000000       1.00000000
  1 119 92      32.50000000       1.00000000
  1 119 93      40.50000000       1.00000000
  3 119 94      36.00000000       1.00000000
  3 119 95      36.50000000       1.00000000
  3 119 96      33.50000000       1.00000000
  3 119 97      35.50000000       1.00000000
  3 119 98      40.50000000       1.00000000
  1 119 99      29.00000000       1.00000000
  1 119 100      23.50000000       1.00000000
  1 119 101      23.50000000       1.00000000
  1 119 102      23.50000000       1.00000000
  1 119 103      21.50000000       1.00000000
  1 119 104      19.50000000       1.00000000
  1 119 105      18.50000000       1.00000000
  1 119 106      20.00000000       1.00000000
  1 119 107      17.00000000       1.00000000
  1 119 108      16.00000000       1.00000000
  1 119 109      14.50000000       1.00000000
  1 119 110      13.00000000       1.00000000
  1 119 111      12.00000000       1.00000000
  1 119 112      10.00000000       1.00000000
  1 119 113       9.00000000       1.00000000
  1 119 114       7.50000000       1.00000000
  1 119 115       7.00000000       1.00000000
  1 119 116       6.00000000       1.00000000
  1 119 117       5.00000000       1.00000000
  1 119 118       4.00000000       1.00000000
  1 119 119       3.00000000       1.00000000
  3 120 85      50.00000000       1.00000000
  1 120 86      46.50000000       1.00000000
  1 120 87      45.00000000       1.00000000
  1 120 88      38.00000000       1.00000000
  1 120 89      35.00000000       1.00000000
  1 120 90      36.00000000       1.00000000
  1 120 91      35.00000000       1.00000000
  3 120 92      41.50000000       1.00000000
  3 120 93      40.00000000       1.00000000
  3 120 94      34.00000000       1.00000000
  3 120 95      33.50000000       1.00000000
  3 120 96      36.00000000       1.00000000
  3 120 97      37.00000000       1.00000000
  3 120 98      39.00000000       1.00000000
  1 120 99      25.00000000       1.00000000
  1 120 100      24.50000000       1.00000000
  1 120 101      24.00000000       1.00000000
  1 120 102      22.50000000       1.00000000
  1 120 103      21.00000000       1.00000000
  1 120 104      19.50000000       1.00000000
  1 120 105      18.50000000       1.00000000
  1 120 106      17.00000000       1.00000000
  1 120 107      17.00000000       1.00000000
  1 120 108      15.50000000       1.00000000
  1 120 109      14.00000000       1.00000000
  1 120 110      12.50000000       1.00000000
  1 120 111      11.00000000       1.00000000
  1 120 112      10.00000000       1.00000000
  1 120 113       9.50000000       1.00000000
  1 120 114       7.50000000       1.00000000
  1 120 115       6.50000000       1.00000000
  1 120 116       5.00000000       1.00000000
  1 120 117       4.00000000       1.00000000
  1 120 118       3.00000000       1.00000000
  1 120 119       2.00000000       1.00000000
  3 121 85      43.50000000       1.00000000
  3 121 86      42.50000000       1.00000000
  3 121 87      38.50000000       1.00000000
  3 121 88      46.00000000       1.00000000
  3 121 89      44.50000000       1.00000000
  3 121 90      45.00000000       1.00000000
  3 121 91      43.00000000       1.00000000
  3 121 92      35.50000000       1.00000000
  3 121 93      29.00000000       1.00000000
  3 121 94      27.50000000       1.00000000
  3 121 95      30.50000000       1.00000000
  3 121 96      39.00000000       1.00000000
  3 121 97      37.00000000       1.00000000
  3 121 98      29.50000000       1.00000000
  1 121 99      24.50000000       1.00000000
  1 121 100      23.00000000       1.00000000
  1 121 101      21.00000000       1.00000000
  1 121 102      19.00000000       1.00000000
  1 121 103      17.50000000       1.00000000
  1 121 104      16.00000000       1.00000000
  1 121 105      16.00000000       1.00000000
  1 121 106      17.00000000       1.00000000
  1 121 107      15.50000000       1.00000000
  1 121 108      14.50000000       1.00000000
  1 121 109      13.50000000       1.00000000
  1 121 110      12.50000000       1.00000000
  1 121 111      11.00000000       1.00000000
  1 121 112       9.50000000       1.00000000
  1 121 113       8.00000000       1.00000000
  1 121 114       8.00000000       1.00000000
  1 121 115       6.00000000       1.00000000
  1 121 116       5.00000000       1.00000000
  1 121 117       4.00000000       1.00000000
  1 121 118       3.00000000       1.00000000
  1 121 119       2.50000000       1.00000000
  3 122 85      45.50000000       1.00000000
  3 122 86      39.00000000       1.00000000
  3 122 87      54.50000000       1.00000000
  3 122 88      54.00000000       1.00000000
  3 122 89      51.00000000       1.00000000
  3 122 90      40.00000000       1.00000000
  3 122 91      32.50000000       1.00000000
  3 122 92      26.00000000       1.00000000
  3 122 93      26.00000000       1.00000000
  3 122 94      31.00000000       1.00000000
  3 122 95      35.50000000       1.00000000
  3 122 96      34.00000000       1.00000000
  3 122 97      40.00000000       1.00000000
  1 122 98      24.00000000       1.00000000
  1 122 99      20.50000000       1.00000000
  1 122 100      19.50000000       1.00000000
  1 122 101      19.50000000       1.00000000
  1 122 102      17.50000000       1.00000000
  1 122 103      17.00000000       1.00000000
  1 122 104      16.00000000       1.00000000
  1 122 105      15.00000000       1.00000000
  1 122 106      15.00000000       1.00000000
  1 122 107      15.00000000       1.00000000
  1 122 108      13.50000000       1.00000000
  1 122 109      13.00000000       1.00000000
  1 122 110      12.00000000       1.00000000
  1 122 111      11.00000000       1.00000000
  1 122 112      10.00000000       1.00000000
  1 122 113       7.00000000       1.00000000
  1 122 114       7.00000000       1.00000000
  1 122 115       6.00000000       1.00000000
  1 122 116       5.00000000       1.00000000
  1 122 117       4.00000000       1.00000000
  1 122 118       3.50000000       1.00000000
  1 122 119       3.00000000       1.00000000
  3 123 85      44.50000000       1.00000000
  3 123 86      46.50000000       1.00000000
  3 123 87      58.00000000       1.00000000
  3 123 88      52.50000000       1.00000000
  3 123 89      32.00000000       1.00000000
  3 123 90      23.00000000       1.00000000
  3 123 91      22.00000000       1.00000000
  3 123 92      22.00000000       1.00000000
  3 123 93      22.00000000       1.00000000
  3 123 94      22.00000000       1.00000000
  3 123 95      44.00000000       1.00000000
  3 123 96      49.50000000       1.00000000
  3 123 97      32.00000000       1.00000000
  1 123 98      24.00000000       1.00000000
  1 123 99      16.50000000       1.00000000
  1 123 100      17.00000000       1.00000000
  1 123 101      16.00000000       1.00000000
  1 123 102      16.00000000       1.00000000
  1 123 103      15.00000000       1.00000000
  1 123 104      16.00000000       1.00000000
  1 123 105      16.00000000       1.00000000
  1 123 106      15.00000000       1.00000000
  1 123 107      14.00000000       1.00000000
  1 123 108      12.50000000       1.00000000
  1 123 109      12.00000000       1.00000000
  1 123 110      11.00000000       1.00000000
  1 123 111      10.00000000       1.00000000
  1 123 112      10.00000000       1.00000000
  1 123 113       7.00000000       1.00000000
  1 123 114       7.00000000       1.00000000
  1 123 115       6.00000000       1.00000000
  1 123 116       5.00000000       1.00000000
  1 123 117       4.00000000       1.00000000
  1 123 118       4.00000000       1.00000000
  1 123 119       4.00000000       1.00000000
  3 124 85      46.00000000       1.00000000
  3 124 86      61.50000000       1.00000000
  3 124 87      62.00000000       1.00000000
  3 124 88      44.50000000       1.00000000
  3 124 89      32.50000000       1.00000000
  3 124 90      22.00000000       1.00000000
  3 124 91      22.00000000       1.00000000
  3 124 92      22.00000000       1.00000000
  3 124 93      22.00000000       1.00000000
  3 124 94      22.00000000       1.00000000
  3 124 95      22.00000000       1.00000000
  3 124 96      30.00000000       1.00000000
  1 124 97      20.50000000       1.00000000
  1 124 98      17.00000000       1.00000000
  1 124 99      17.00000000       1.00000000
  1 124 100      16.00000000       1.00000000
  1 124 101      15.50000000       1.00000000
  1 124 102      15.00000000       1.00000000
  1 124 103      14.00000000       1.00000000
  1 124 104      14.00000000       1.00000000
  1 124 105      15.00000000       1.00000000
  1 124 106      15.00000000       1.00000000
  1 124 107      15.00000000       1.00000000
  1 124 108      12.00000000       1.00000000
  1 124 109      11.00000000       1.00000000
  1 124 110      10.00000000       1.00000000
  1 124 111       9.00000000       1.00000000
  1 124 112       8.50000000       1.00000000
  1 124 113       7.00000000       1.00000000
  1 124 114       7.00000000       1.00000000
  1 124 115       6.00000000       1.00000000
  1 124 116       5.00000000       1.00000000
  1 124 117       5.00000000       1.00000000
  1 124 118       5.00000000       1.00000000
  1 124 119       4.00000000       1.00000000
  3 125 85      65.00000000       1.00000000
  3 125 86      63.00000000       1.00000000
  3 125 87      44.50000000       1.00000000
  3 125 88      40.50000000       1.00000000
  3 125 89      25.00000000       1.00000000
  3 125 90      22.00000000       1.00000000
  3 125 91      22.00000000       1.00000000
  3 125 92      22.00000000       1.00000000
  3 125 93      22.00000000       1.00000000
  3 125 94      22.00000000       1.00000000
  3 125 95      22.50000000       1.00000000
  1 125 96      23.00000000       1.00000000
  1 125 97      17.00000000       1.00000000
  1 125 98      17.00000000       1.00000000
  1 125 99      16.00000000       1.00000000
  1 125 100      16.00000000       1.00000000
  1 125 101      15.00000000       1.00000000
  1 125 102      14.00000000       1.00000000
  1 125 103      13.50000000       1.00000000
  1 125 104      13.00000000       1.00000000
  1 125 105      12.00000000       1.00000000
  1 125 106      15.00000000       1.00000000
  1 125 107      15.00000000       1.00000000
  1 125 108      14.00000000       1.00000000
  1 125 109      10.50000000       1.00000000
  1 125 110       9.00000000       1.00000000
  1 125 111       8.00000000       1.00000000
  1 125 112       7.00000000       1.00000000
  1 125 113       7.00000000       1.00000000
  1 125 114       7.00000000       1.00000000
  1 125 115       6.00000000       1.00000000
  1 125 116       6.00000000       1.00000000
  1 125 117       6.00000000       1.00000000
  1 125 118       5.00000000       1.00000000
  1 125 119       4.00000000       1.00000000
  3 126 85      68.00000000       1.00000000
  3 126 86      46.50000000       1.00000000
  3 126 87      38.00000000       1.00000000
  3 126 88      27.50000000       1.00000000
  3 126 89      25.00000000       1.00000000
  3 126 90      22.00000000       1.00000000
  3 126 91      22.00000000       1.00000000
  3 126 92      22.00000000       1.00000000
  3 126 93      22.00000000       1.00000000
  3 126 94      22.00000000       1.00000000
  3 126 95      23.00000000       1.00000000
  3 126 96      22.00000000       1.00000000
  1 126 97      15.50000000       1.00000000
  1 126 98      17.00000000       1.00000000
  1 126 99      17.00000000       1.00000000
  1 126 100      16.00000000       1.00000000
  1 126 101      15.00000000       1.00000000
  1 126 102      14.00000000       1.00000000
  1 126 103      14.00000000       1.00000000
  1 126 104      13.00000000       1.00000000
  1 126 105      15.00000000       1.00000000
  1 126 106      17.50000000       1.00000000
  1 126 107      15.50000000       1.00000000
  1 126 108      13.00000000       1.00000000
  1 126 109      10.50000000       1.00000000
  1 126 110       8.00000000       1.00000000
  1 126 111       7.00000000       1.00000000
  1 126 112       7.00000000       1.00000000
  1 126 113       7.00000000       1.00000000
  1 126 114       7.00000000       1.00000000
  1 126 115       7.00000000       1.00000000
  1 126 116       7.00000000       1.00000000
  1 126 117       6.00000000       1.00000000
  1 126 118       4.00000000       1.00000000
  1 126 119       4.50000000       1.00000000
  3 127 85      61.50000000       1.00000000
  3 127 86      47.50000000       1.00000000
  3 127 87      36.00000000       1.00000000
  3 127 88      26.50000000       1.00000000
  3 127 89      26.50000000       1.00000000
  3 127 90      26.00000000       1.00000000
  3 127 91      24.50000000       1.00000000
  3 127 92      22.00000000       1.00000000
  3 127 93      22.00000000       1.00000000
  3 127 94      25.00000000       1.00000000
  3 127 95      23.00000000       1.00000000
  3 127 96      22.00000000       1.00000000
  1 127 97      17.50000000       1.00000000
  1 127 98      17.00000000       1.00000000
  1 127 99      17.00000000       1.00000000
  1 127 100      16.50000000       1.00000000
  1 127 101      16.00000000       1.00000000
  1 127 102      15.50000000       1.00000000
  1 127 103      15.00000000       1.00000000
  1 127 104      14.00000000       1.00000000
  1 127 105      19.00000000       1.00000000
  1 127 106      16.00000000       1.00000000
  1 127 107      15.50000000       1.00000000
  1 127 108      13.00000000       1.00000000
  1 127 109      11.00000000       1.00000000
  1 127 110       9.00000000       1.00000000
  1 127 111       8.00000000       1.00000000
  1 127 112       9.50000000       1.00000000
  1 127 113       8.00000000       1.00000000
  1 127 114       7.50000000       1.00000000
  1 127 115       7.00000000       1.00000000
  1 127 116       7.00000000       1.00000000
  1 127 117       5.50000000       1.00000000
  1 127 118       5.00000000       1.00000000
  1 127 119       5.00000000       1.00000000
  3 128 85      59.50000000       1.00000000
  3 128 86      45.00000000       1.00000000
  3 128 87      39.50000000       1.00000000
  3 128 88      41.50000000       1.00000000
  3 128 89      35.50000000       1.00000000
  3 128 90      43.50000000       1.00000000
  3 128 91      45.00000000       1.00000000
  3 128 92      35.50000000       1.00000000
  3 128 93      32.00000000       1.00000000
  3 128 94      28.00000000       1.00000000
  3 128 95      23.00000000       1.00000000
  3 128 96      20.50000000       1.00000000
  1 128 97      19.50000000       1.00000000
  1 128 98      20.00000000       1.00000000
  1 128 99      17.00000000       1.00000000
  1 128 100      17.00000000       1.00000000
  1 128 101      17.00000000       1.00000000
  1 128 102      16.00000000       1.00000000
  1 128 103      15.00000000       1.00000000
  1 128 104      14.00000000       1.00000000
  1 128 105      13.50000000       1.00000000
  1 128 106      14.00000000       1.00000000
  1 128 107      16.00000000       1.00000000
  1 128 108      14.00000000       1.00000000
  1 128 109      11.50000000       1.00000000
  1 128 110      10.00000000       1.00000000
  1 128 111       9.00000000       1.00000000
  1 128 112       9.00000000       1.00000000
  1 128 113       9.00000000       1.00000000
  1 128 114       9.00000000       1.00000000
  1 128 115       9.00000000       1.00000000
  1 128 116       8.00000000       1.00000000
  1 128 117       7.00000000       1.00000000
  1 128 118       6.00000000       1.00000000
  1 128 119       6.00000000       1.00000000
  3 129 85      40.50000000       1.00000000
  3 129 86      31.00000000       1.00000000
  3 129 87      35.00000000       1.00000000
  3 129 88      29.00000000       1.00000000
  3 129 89      34.00000000       1.00000000
  3 129 90      35.00000000       1.00000000
  3 129 91      36.00000000       1.00000000
  3 129 92      31.50000000       1.00000000
  3 129 93      25.00000000       1.00000000
  3 129 94      21.00000000       1.00000000
  3 129 95      15.50000000       1.00000000
  3 129 96      16.50000000       1.00000000
  3 129 97      18.50000000       1.00000000
  1 129 98      16.50000000       1.00000000
  1 129 99      17.00000000       1.00000000
  1 129 100      17.00000000       1.00000000
  1 129 101      17.00000000       1.00000000
  1 129 102      16.00000000       1.00000000
  1 129 103      15.00000000       1.00000000
  1 129 104      14.00000000       1.00000000
  1 129 105      14.00000000       1.00000000
  1 129 106      14.50000000       1.00000000
  1 129 107      12.00000000       1.00000000
  1 129 108      13.00000000       1.00000000
  1 129 109      14.00000000       1.00000000
  1 129 110      11.50000000       1.00000000
  1 129 111      10.00000000       1.00000000
  1 129 112      10.00000000       1.00000000
  1 129 113      10.00000000       1.00000000
  1 129 114       9.00000000       1.00000000
  1 129 115       8.00000000       1.00000000
  1 129 116       7.00000000       1.00000000
  1 129 117       6.50000000       1.00000000
  1 129 118       6.00000000       1.00000000
  1 129 119       6.00000000       1.00000000
  3 130 85      34.50000000       1.00000000
  3 130 86      26.50000000       1.00000000
  3 130 87      21.50000000       1.00000000
  3 130 88      17.00000000       1.00000000
  3 130 89      15.00000000       1.00000000
  3 130 90      16.50000000       1.00000000
  3 130 91      13.00000000       1.00000000
  3 130 92      24.50000000       1.00000000
  3 130 93      21.00000000       1.00000000
  3 130 94      21.00000000       1.00000000
  3 130 95      17.00000000       1.00000000
  3 130 96      17.00000000       1.00000000
  3 130 97      17.00000000       1.00000000
  3 130 98      16.00000000       1.00000000
  3 130 99      18.50000000       1.00000000
  1 130 100      17.00000000       1.00000000
  1 130 101      17.00000000       1.00000000
  1 130 102      16.00000000       1.00000000
  1 130 103      15.00000000       1.00000000
  1 130 104      14.00000000       1.00000000
  1 130 105      13.50000000       1.00000000
  1 130 106      12.50000000       1.00000000
  1 130 107      12.00000000       1.00000000
  1 130 108      11.50000000       1.00000000
  1 130 109      13.00000000       1.00000000
  1 130 110      12.00000000       1.00000000
  1 130 111      11.50000000       1.00000000
  1 130 112      11.00000000       1.00000000
  1 130 113      10.00000000       1.00000000
  1 130 114       7.00000000       1.00000000
  1 130 115       7.00000000       1.00000000
  1 130 116       6.50000000       1.00000000
  1 130 117       6.50000000       1.00000000
  1 130 118       6.00000000       1.00000000
  3 130 119       7.00000000       1.00000000
  3 131 85      35.50000000       1.00000000
  3 131 86      27.00000000       1.00000000
  3 131 87      18.50000000       1.00000000
  3 131 88      17.00000000       1.00000000
  3 131 89      16.00000000       1.00000000
  3 131 90      17.00000000       1.00000000
  3 131 91      17.00000000       1.00000000
  3 131 92      17.00000000       1.00000000
  3 131 93      17.00000000       1.00000000
  3 131 94      17.00000000       1.00000000
  3 131 95      17.00000000       1.00000000
  3 131 96      15.50000000       1.00000000
  3 131 97      17.00000000       1.00000000
  3 131 98      21.00000000       1.00000000
  3 131 99      17.50000000       1.00000000
  3 131 100      17.00000000       1.00000000
  1 131 101      16.00000000       1.00000000
  1 131 102      15.50000000       1.00000000
  1 131 103      15.00000000       1.00000000
  1 131 104      14.00000000       1.00000000
  1 131 105      13.00000000       1.00000000
  1 131 106      13.00000000       1.00000000
  1 131 107      13.00000000       1.00000000
  1 131 108      13.00000000       1.00000000
  1 131 109      13.00000000       1.00000000
  1 131 110      12.50000000       1.00000000
  1 131 111      12.50000000       1.00000000
  1 131 112       6.00000000       1.00000000
  1 131 113       7.50000000       1.00000000
  1 131 114       7.00000000       1.00000000
  1 131 115       6.50000000       1.00000000
  1 131 116       5.00000000       1.00000000
  3 131 117       5.00000000       1.00000000
  3 131 118      12.00000000       1.00000000
  3 131 119      12.00000000       1.00000000
  3 132 85      35.00000000       1.00000000
  3 132 86      27.00000000       1.00000000
  3 132 87      19.00000000       1.00000000
  3 132 88      17.00000000       1.00000000
  3 132 89      19.00000000       1.00000000
  3 132 90      17.00000000       1.00000000
  3 132 91      16.50000000       1.00000000
  3 132 92      17.00000000       1.00000000
  3 132 93      17.00000000       1.00000000
  3 132 94      19.50000000       1.00000000
  3 132 95      21.00000000       1.00000000
  3 132 96      24.00000000       1.00000000
  3 132 97      29.00000000       1.00000000
  3 132 98      23.00000000       1.00000000
  3 132 99      17.00000000       1.00000000
  3 132 100      17.00000000       1.00000000
  3 132 101      16.50000000       1.00000000
  1 132 102      16.00000000       1.00000000
  1 132 103      15.00000000       1.00000000
  1 132 104      14.00000000       1.00000000
  1 132 105      14.00000000       1.00000000
  1 132 106      14.00000000       1.00000000
  1 132 107      14.00000000       1.00000000
  1 132 108      14.00000000       1.00000000
  1 132 109      14.00000000       1.00000000
  1 132 110      13.50000000       1.00000000
  1 132 111      10.00000000       1.00000000
  1 132 112      11.50000000       1.00000000
  1 132 113       7.00000000       1.00000000
  1 132 114       7.00000000       1.00000000
  3 132 115       6.50000000       1.00000000
  3 132 116      16.50000000       1.00000000
  3 132 117      16.50000000       1.00000000
  3 132 118      14.00000000       1.00000000
  3 132 119      11.50000000       1.00000000
  3 133 85      38.50000000       1.00000000
  3 133 86      28.50000000       1.00000000
  3 133 87      22.50000000       1.00000000
  3 133 88      20.50000000       1.00000000
  3 133 89      19.50000000       1.00000000
  3 133 90      17.50000000       1.00000000
  3 133 91      20.50000000       1.00000000
  3 133 92      17.00000000       1.00000000
  3 133 93      16.50000000       1.00000000
  3 133 94      22.50000000       1.00000000
  3 133 95      21.00000000       1.00000000
  3 133 96      23.00000000       1.00000000
  3 133 97      22.00000000       1.00000000
  3 133 98      22.50000000       1.00000000
  3 133 99      20.50000000       1.00000000
  3 133 100      17.00000000       1.00000000
  3 133 101      17.00000000       1.00000000
  3 133 102      16.00000000       1.00000000
  1 133 103      15.00000000       1.00000000
  1 133 104      15.00000000       1.00000000
  1 133 105      15.00000000       1.00000000
  1 133 106      15.00000000       1.00000000
  1 133 107      15.00000000       1.00000000
  1 133 108      15.00000000       1.00000000
  1 133 109      15.00000000       1.00000000
  1 133 110      12.50000000       1.00000000