BEGIN options
  SAVE_FLOWS
END options

BEGIN dimensions
  MAXBOUND  25
END dimensions

BEGIN period  1
  3 123 90      24.00000000
  3 123 91      24.00000000
  3 123 92      24.00000000
  3 123 93      24.00000000
  3 123 94      24.00000000
  3 124 90      24.00000000
  3 124 91      24.00000000
  3 124 92      24.00000000
  3 124 93      24.00000000
  3 124 94      24.00000000
  3 124 95      24.00000000
  3 125 89      24.00000000
  3 125 90      24.00000000
  3 125 91      24.00000000
  3 125 92      24.00000000
  3 125 93      24.00000000
  3 125 94      24.00000000
  3 126 90      24.00000000
  3 126 91      24.00000000
  3 126 92      24.00000000
  3 126 93      24.00000000
  3 126 94      24.00000000
  3 127 91      24.00000000
  3 127 92      24.00000000
  3 127 93      24.00000000
END period  1

