BEGIN options
  SAVE_FLOWS
END options

BEGIN dimensions
  MAXBOUND  86
END dimensions

BEGIN period  1
  2 69 73      25.44829707       0.00300000      23.94829707
  2 69 74      25.13888057       0.00300000      23.63888057
  2 69 75      23.58412376       0.00300000      22.08412376
  2 70 75      22.40360537       0.00300000      20.90360537
  2 70 76      20.29485655       0.00300000      18.79485655
  2 71 76      20.14115471       0.00300000      18.64115471
  2 72 76      20.03670864       0.00300000      18.53670864
  2 72 77      19.94694643       0.00300000      18.44694643
  2 73 77      19.85140289       0.00300000      18.35140289
  2 73 78      19.74819783       0.00300000      18.24819783
  2 73 79      19.67508161       0.00300000      18.17508161
  2 72 79      19.59427899       0.00300000      18.09427899
  2 72 80      19.45295119       0.00300000      17.95295119
  2 71 80      19.36752313       0.00300000      17.86752313
  2 71 81      19.11102746       0.00300000      17.61102746
  2 71 82      18.95402420       0.00300000      17.45402420
  2 72 82      18.85361617       0.00300000      17.35361617
  2 72 83      18.73331589       0.00300000      17.23331589
  2 73 83      18.60761577       0.00300000      17.10761577
  2 73 84      18.47842604       0.00300000      16.97842604
  2 72 84      18.38557699       0.00300000      16.88557699
  2 72 85      18.28190927       0.00300000      16.78190927
  2 72 86      17.71483052       0.00300000      16.21483052
  2 72 87      17.14965952       0.00300000      15.64965952
  2 72 88      16.58427918       0.00300000      15.08427918
  2 72 89      16.01811366       0.00300000      14.51811366
  2 72 90      15.45896013       0.00300000      13.95896013
  2 72 91      14.90136021       0.00300000      13.40136021
  2 72 92      14.47502712       0.00300000      12.97502712
  2 73 92      13.77713762       0.00300000      12.27713762
  2 73 93      13.14497569       0.00300000      11.64497569
  2 73 94      12.48720215       0.00300000      10.98720215
  2 74 94      11.50052375       0.00300000      10.00052375
  2 74 95      11.31430194       0.00300000       9.81430194
  2 75 95      11.17491807       0.00300000       9.67491807
  2 75 94      11.01149821       0.00300000       9.51149821
  2 76 94      10.90582235       0.00300000       9.40582235
  2 76 95      10.66939663       0.00300000       9.16939663
  2 76 96      10.44364459       0.00300000       8.94364459
  2 77 96      10.27662155       0.00300000       8.77662155
  2 77 97       9.95994118       0.00300000       8.45994118
  2 77 98       9.62512718       0.00300000       8.12512718
  2 77 99       9.29225292       0.00300000       7.79225292
  2 77 100       8.62041759       0.00300000       7.12041759
  2 77 101       8.38647386       0.00300000       6.88647386
  2 78 101       8.13731500       0.00300000       6.63731500
  2 78 102       7.90681797       0.00300000       6.40681797
  2 79 102       7.66328397       0.00300000       6.16328397
  2 79 103       7.35919919       0.00300000       5.85919919
  2 80 103       7.17159492       0.00300000       5.67159492
  2 80 104       6.89560978       0.00300000       5.39560978
  2 80 105       6.53306842       0.00300000       5.03306842
  2 80 106       5.83696174       0.00300000       4.33696174
  2 80 107       5.51325706       0.00300000       4.01325706
  2 80 108       5.18194860       0.00300000       3.68194860
  2 80 109       4.96297881       0.00300000       3.46297881
  2 79 109       4.73708422       0.00300000       3.23708422
  2 79 110       4.29536852       0.00300000       2.79536852
  2 78 110       4.11464099       0.00300000       2.61464099
  2 78 111       3.83991313       0.00300000       2.33991313
  2 78 112       3.65959960       0.00300000       2.15959960
  2 77 112       3.48473206       0.00300000       1.98473206
  2 77 113       3.17606387       0.00300000       1.67606387
  2 76 113       3.00344230       0.00300000       1.50344230
  2 76 114       2.79433831       0.00300000       1.29433831
  2 76 115       2.46650221       0.00300000       0.96650221
  2 76 116       2.23609317       0.00300000       0.73609317
  2 75 116       2.08075843       0.00300000       0.58075843
  2 75 117       1.84279284       0.00300000       0.34279284
  2 75 118       1.52693218       0.00300000       0.02693218
  2 75 119       1.05320831       0.00300000      -0.44679169
  2 74 119       1.01088548       0.00300000      -0.48911452
  2 74 120       0.96305662       0.00300000      -0.53694338
  2 74 121       0.87699149       0.00300000      -0.62300851
  2 74 122       0.81263308       0.00300000      -0.68736692
  2 73 122       0.77027384       0.00300000      -0.72972616
  2 73 123       0.70729847       0.00300000      -0.79270153
  2 73 124       0.62600632       0.00300000      -0.87399368
  2 73 125       0.54569523       0.00300000      -0.95430477
  2 73 126       0.47102048       0.00300000      -1.02897952
  2 72 126       0.41148468       0.00300000      -1.08851532
  2 72 127       0.36336437       0.00300000      -1.13663563
  2 71 127       0.29550961       0.00300000      -1.20449039
  2 71 128       0.24369796       0.00300000      -1.25630204
  2 70 128       0.19803035       0.00300000      -1.30196965
  2 70 129       0.12967641       0.00300000      -1.37032359
END period  1

