BEGIN options
  SAVE_FLOWS
END options

BEGIN dimensions
  MAXBOUND  84
END dimensions

BEGIN period  1
  2 69 72      28.00000000       0.00300000      26.50000000
  2 69 73      27.66770188       0.00300000      26.16770188
  2 69 74      27.00597387       0.00300000      25.50597387
  2 69 75      26.28945302       0.00300000      24.78945302
  2 70 75      25.85627392       0.00300000      24.35627392
  2 70 76      25.46727565       0.00300000      23.96727565
  2 71 76      24.76668068       0.00300000      23.26668068
  2 72 76      24.26579765       0.00300000      22.76579765
  2 72 77      23.78969767       0.00300000      22.28969767
  2 73 77      23.37915765       0.00300000      21.87915765
  2 72 78      22.97362504       0.00300000      21.47362504
  2 72 79      22.26589826       0.00300000      20.76589826
  2 72 80      21.71158575       0.00300000      20.21158575
  2 71 80      21.33131693       0.00300000      19.83131693
  2 71 81      20.79598863       0.00300000      19.29598863
  2 71 82      20.19358450       0.00300000      18.69358450
  2 72 82      19.81249261       0.00300000      18.31249261
  2 72 83      19.34076743       0.00300000      17.84076743
  2 73 83      18.88225761       0.00300000      17.38225761
  2 73 84      18.52878302       0.00300000      17.02878302
  2 72 84      18.17990499       0.00300000      16.67990499
  2 72 85      17.71534431       0.00300000      16.21534431
  2 72 86      17.00898389       0.00300000      15.50898389
  2 72 87      16.35004963       0.00300000      14.85004963
  2 72 88      15.68947056       0.00300000      14.18947056
  2 72 89      15.02832911       0.00300000      13.52832911
  2 72 90      14.37594036       0.00300000      12.87594036
  2 72 91      13.72442709       0.00300000      12.22442709
  2 72 92      12.86849463       0.00300000      11.36849463
  2 73 92      12.62591394       0.00300000      11.12591394
  2 73 93      12.28429573       0.00300000      10.78429573
  2 73 94      11.90092031       0.00300000      10.40092031
  2 74 94      11.51205165       0.00300000      10.01205165
  2 75 94      11.05768067       0.00300000       9.55768067
  2 76 94      10.79185736       0.00300000       9.29185736
  2 76 95      10.47441383       0.00300000       8.97441383
  2 76 96      10.15462922       0.00300000       8.65462922
  2 77 96       9.93377681       0.00300000       8.43377681
  2 77 97       9.54357549       0.00300000       8.04357549
  2 77 98       9.09670853       0.00300000       7.59670853
  2 77 99       8.65295625       0.00300000       7.15295625
  2 77 100       8.21521471       0.00300000       6.71521471
  2 77 101       7.92114579       0.00300000       6.42114579
  2 78 101       7.60539899       0.00300000       6.10539899
  2 78 102       7.32460861       0.00300000       5.82460861
  2 79 102       7.03452476       0.00300000       5.53452476
  2 79 103       6.62395783       0.00300000       5.12395783
  2 80 103       6.39516105       0.00300000       4.89516105
  2 80 104       6.09797445       0.00300000       4.59797445
  2 80 105       5.65354203       0.00300000       4.15354203
  2 80 106       4.90698041       0.00300000       3.40698041
  2 80 107       4.72218012       0.00300000       3.22218012
  2 80 108       4.53132194       0.00300000       3.03132194
  2 80 109       4.42251995       0.00300000       2.92251995
  2 79 109       4.29379510       0.00300000       2.79379510
  2 79 110       4.14737325       0.00300000       2.64737325
  2 78 110       4.03715320       0.00300000       2.53715320
  2 78 111       3.86954458       0.00300000       2.36954458
  2 77 111       3.76204073       0.00300000       2.26204073
  2 77 112       3.63362274       0.00300000       2.13362274
  2 77 113       3.47045887       0.00300000       1.97045887
  2 76 113       3.36591369       0.00300000       1.86591369
  2 76 114       3.21513783       0.00300000       1.71513783
  2 76 115       3.01735792       0.00300000       1.51735792
  2 76 116       2.92048800       0.00300000       1.42048800
  2 75 116       2.82637844       0.00300000       1.32637844
  2 75 117       2.63963916       0.00300000       1.13963916
  2 75 118       2.44810545       0.00300000       0.94810545
  2 75 119       2.29960843       0.00300000       0.79960843
  2 74 119       2.20259159       0.00300000       0.70259159
  2 74 120       2.06101865       0.00300000       0.56101865
  2 74 121       1.86340806       0.00300000       0.36340806
  2 74 122       1.75062078       0.00300000       0.25062078
  2 73 122       1.65412438       0.00300000       0.15412438
  2 73 123       1.47563239       0.00300000      -0.02436761
  2 73 124       1.28972000       0.00300000      -0.21028000
  2 73 125       1.10429392       0.00300000      -0.39570608
  2 73 126       0.95054246       0.00300000      -0.54945754
  2 72 126       0.80803038       0.00300000      -0.69196962
  2 72 127       0.69923709       0.00300000      -0.80076291
  2 71 127       0.55391198       0.00300000      -0.94608802
  2 70 127       0.42940294       0.00300000      -1.07059706
  2 70 128       0.32194455       0.00300000      -1.17805545
  2 70 129       0.16005364       0.00300000      -1.33994636
END period  1

