BEGIN options
  SAVE_FLOWS
END options

BEGIN dimensions
  MAXBOUND  84
END dimensions

BEGIN period  1
  1 69 72      28.00000000
  1 69 73      27.66770188
  1 69 74      27.00597387
  1 69 75      26.28945302
  1 70 75      25.85627392
  1 70 76      25.46727565
  1 71 76      24.76668068
  1 72 76      24.26579765
  1 72 77      23.78969767
  1 73 77      23.37915765
  1 72 78      22.97362504
  1 72 79      22.26589826
  1 72 80      21.71158575
  1 71 80      21.33131693
  1 71 81      20.79598863
  1 71 82      20.19358450
  1 72 82      19.81249261
  1 72 83      19.34076743
  1 73 83      18.88225761
  1 73 84      18.52878302
  1 72 84      18.17990499
  1 72 85      17.71534431
  1 72 86      17.00898389
  1 72 87      16.35004963
  1 72 88      15.68947056
  1 72 89      15.02832911
  1 72 90      14.37594036
  1 72 91      13.72442709
  1 72 92      12.86849463
  1 73 92      12.62591394
  1 73 93      12.28429573
  1 73 94      11.90092031
  1 74 94      11.51205165
  1 75 94      11.05768067
  1 76 94      10.79185736
  1 76 95      10.47441383
  1 76 96      10.15462922
  1 77 96       9.93377681
  1 77 97       9.54357549
  1 77 98       9.09670853
  1 77 99       8.65295625
  1 77 100       8.21521471
  1 77 101       7.92114579
  1 78 101       7.60539899
  1 78 102       7.32460861
  1 79 102       7.03452476
  1 79 103       6.62395783
  1 80 103       6.39516105
  1 80 104       6.09797445
  1 80 105       5.65354203
  1 80 106       4.90698041
  1 80 107       4.72218012
  1 80 108       4.53132194
  1 80 109       4.42251995
  1 79 109       4.29379510
  1 79 110       4.14737325
  1 78 110       4.03715320
  1 78 111       3.86954458
  1 77 111       3.76204073
  1 77 112       3.63362274
  1 77 113       3.47045887
  1 76 113       3.36591369
  1 76 114       3.21513783
  1 76 115       3.01735792
  1 76 116       2.92048800
  1 75 116       2.82637844
  1 75 117       2.63963916
  1 75 118       2.44810545
  1 75 119       2.29960843
  1 74 119       2.20259159
  1 74 120       2.06101865
  1 74 121       1.86340806
  1 74 122       1.75062078
  1 73 122       1.65412438
  1 73 123       1.47563239
  1 73 124       1.28972000
  1 73 125       1.10429392
  1 73 126       0.95054246
  1 72 126       0.80803038
  1 72 127       0.69923709
  1 71 127       0.55391198
  1 70 127       0.42940294
  1 70 128       0.32194455
  1 70 129       0.16005364
END period  1

