BEGIN options
  SAVE_FLOWS
END options

BEGIN dimensions
  MAXBOUND  47
END dimensions

BEGIN period  1
  2 117 6     179.18748053       0.01000000     177.68748053
  2 117 7     177.01157043       0.01000000     175.51157043
  2 116 7     174.82815656       0.01000000     173.32815656
  2 116 8     173.88229626       0.01000000     172.38229626
  2 116 9     172.33164082       0.01000000     170.83164082
  2 116 10     168.49509280       0.01000000     166.99509280
  2 116 11     165.38316950       0.01000000     163.88316950
  2 115 12     159.11695393       0.01000000     157.61695393
  2 115 13     157.82977130       0.01000000     156.32977130
  2 114 13     156.73437124       0.01000000     155.23437124
  2 114 14     154.56678480       0.01000000     153.06678480
  2 113 14     153.68784576       0.01000000     152.18784576
  2 113 15     152.54951345       0.01000000     151.04951345
  2 112 15     151.75300806       0.01000000     150.25300806
  2 112 16     148.76445958       0.01000000     147.26445958
  2 112 17     147.18897543       0.01000000     145.68897543
  2 111 17     144.28898851       0.01000000     142.78898851
  2 111 18     142.81303484       0.01000000     141.31303484
  2 110 18     141.91868381       0.01000000     140.41868381
  2 110 19     139.16830732       0.01000000     137.66830732
  2 110 20     137.84249535       0.01000000     136.34249535
  2 109 20     136.96912644       0.01000000     135.46912644
  2 109 21     134.24554601       0.01000000     132.74554601
  2 108 21     133.39587823       0.01000000     131.89587823
  2 108 22     132.48713363       0.01000000     130.98713363
  2 108 23     131.39284214       0.01000000     129.89284214
  2 107 23     129.29805588       0.01000000     127.79805588
  2 107 24     127.66606391       0.01000000     126.16606391
  2 107 25     124.17133274       0.01000000     122.67133274
  2 107 26     123.11602461       0.01000000     121.61602461
  2 106 26     122.27382156       0.01000000     120.77382156
  2 106 27     118.74591529       0.01000000     117.24591529
  2 106 28     115.00000000       0.01000000     113.50000000
  2 106 29     114.36526533       0.01000000     112.86526533
  2 106 30     113.11340153       0.01000000     111.61340153
  2 106 31     111.87986063       0.01000000     110.37986063
  2 106 32     109.18188756       0.01000000     107.68188756
  2 106 33     107.85882608       0.01000000     106.35882608
  2 105 33     107.01478076       0.01000000     105.51478076
  2 105 34     104.37271104       0.01000000     102.87271104
  2 105 35     103.12151548       0.01000000     101.62151548
  2 105 36     102.23505562       0.01000000     100.73505562
  2 104 36     101.55116515       0.01000000     100.05116515
  2 104 37      99.31225326       0.01000000      97.81225326
  2 103 37      98.17480937       0.01000000      96.67480937
  2 103 38      97.37884126       0.01000000      95.87884126
  2 102 38      93.09650761       0.01000000      91.59650761
END period  1

