BEGIN options
  SAVE_FLOWS
END options

BEGIN dimensions
  MAXBOUND  48
END dimensions

BEGIN period  1
  2 117 6     178.03439040       0.01000000     176.03439040
  2 117 7     176.46133638       0.01000000     174.46133638
  2 116 7     173.54692441       0.01000000     171.54692441
  2 116 8     172.41319598       0.01000000     170.41319598
  2 116 9     171.04975608       0.01000000     169.04975608
  2 116 10     167.50464239       0.01000000     165.50464239
  2 116 11     164.47176952       0.01000000     162.47176952
  2 115 11     162.84322279       0.01000000     160.84322279
  2 115 12     157.95226740       0.01000000     155.95226740
  2 115 13     156.67877582       0.01000000     154.67877582
  2 114 13     155.55693686       0.01000000     153.55693686
  2 114 14     153.73122200       0.01000000     151.73122200
  2 113 14     152.85405239       0.01000000     150.85405239
  2 113 15     151.74111198       0.01000000     149.74111198
  2 112 15     150.95673290       0.01000000     148.95673290
  2 112 16     147.74182013       0.01000000     145.74182013
  2 112 17     146.38046250       0.01000000     144.38046250
  2 111 17     143.17727795       0.01000000     141.17727795
  2 111 18     141.81527206       0.01000000     139.81527206
  2 110 18     140.97147858       0.01000000     138.97147858
  2 110 19     138.11449197       0.01000000     136.11449197
  2 110 20     136.86746327       0.01000000     134.86746327
  2 109 20     135.91879708       0.01000000     133.91879708
  2 109 21     133.40995902       0.01000000     131.40995902
  2 108 21     132.55809556       0.01000000     130.55809556
  2 108 22     131.48109853       0.01000000     129.48109853
  2 108 23     130.54230414       0.01000000     128.54230414
  2 107 23     128.03058549       0.01000000     126.03058549
  2 107 24     126.06140042       0.01000000     124.06140042
  2 107 25     123.53300745       0.01000000     121.53300745
  2 106 25     122.70417027       0.01000000     120.70417027
  2 106 26     121.49635344       0.01000000     119.49635344
  2 106 27     117.74962935       0.01000000     115.74962935
  2 106 28     114.00000000       0.01000000     112.00000000
  2 106 29     113.36449766       0.01000000     111.36449766
  2 106 30     112.11460385       0.01000000     110.11460385
  2 106 31     110.88122053       0.01000000     108.88122053
  2 106 32     108.18107254       0.01000000     106.18107254
  2 106 33     107.12060796       0.01000000     105.12060796
  2 105 33     106.27578622       0.01000000     104.27578622
  2 105 34     103.34369299       0.01000000     101.34369299
  2 105 35     102.02812214       0.01000000     100.02812214
  2 105 36     101.25726533       0.01000000      99.25726533
  2 104 36     100.53411559       0.01000000      98.53411559
  2 104 37      98.41145826       0.01000000      96.41145826
  2 103 37      97.01423086       0.01000000      95.01423086
  2 103 38      96.11975945       0.01000000      94.11975945
  2 102 38      92.34361438       0.01000000      90.34361438
END period  1

