BEGIN options
  SAVE_FLOWS
END options

BEGIN dimensions
  MAXBOUND  67
END dimensions

BEGIN period  1
  2 136 48     139.57597275
  2 135 48     135.60538961
  2 135 49     129.94826262
  2 135 50     129.14142717
  2 135 51     127.32096296
  2 136 51     126.33987079
  2 136 52     122.95966506
  2 136 53     121.11915501
  2 135 53     119.57758449
  2 135 54     117.00685124
  2 135 55     113.28866726
  2 135 56     114.14510810
  2 134 56     113.35544961
  2 134 57     111.14775169
  2 134 58     110.65363095
  2 135 58     109.25345451
  2 135 59     107.49762659
  2 134 59     106.20319577
  2 134 60     105.22368488
  2 135 60     104.00361998
  2 134 61     102.65865260
  2 134 62     100.84952257
  2 133 62     100.78308202
  2 132 62     100.71452261
  2 133 63     100.64970042
  2 133 64      99.99754472
  2 132 64      98.46233933
  2 133 65      94.47193682
  3 132 65      92.51922427
  3 132 66      88.41262540
  3 131 66      86.79176672
  3 131 67      85.43293690
  3 132 67      81.79913321
  2 132 68      81.43254440
  3 131 68      80.11879342
  2 130 68      79.44363836
  3 131 69      78.94680578
  2 131 70      78.44161536
  2 130 70      77.02581913
  3 130 71      75.88169070
  2 131 71      75.27444703
  3 130 72      74.35039919
  3 129 72      71.53051449
  2 129 73      69.28648453
  3 128 73      67.40836680
  2 127 73      64.82426588
  3 127 74      63.73814311
  2 128 74      63.72549545
  2 128 75      63.20172925
  2 128 76      62.16729796
  3 127 76      61.55984126
  2 127 77      61.64469944
  2 126 77      60.81585347
  2 126 78      59.00301075
  2 126 79      57.75780237
  2 125 79      54.74524025
  2 125 80      53.08554207
  2 125 81      51.61225016
  2 124 81      48.51375826
  2 124 82      45.27434027
  2 123 82      44.00000000
  2 123 83      44.00000000
  2 123 84      44.00000000
  2 122 84      42.82304527
  2 121 84      41.34148055
  2 121 85      40.85128367
  2 122 85      39.83284838
END period  1

