BEGIN options
  SAVE_FLOWS
END options

BEGIN dimensions
  MAXBOUND  67
END dimensions

BEGIN period  1
  4 136 48     138.97536885       0.00300000     137.47536885
  4 135 48     132.46935826       0.00300000     130.96935826
  4 135 49     129.17597283       0.00300000     127.67597283
  4 135 50     126.34346046       0.00300000     124.84346046
  4 135 51     125.06900834       0.00300000     123.56900834
  4 136 51     124.38217529       0.00300000     122.88217529
  4 136 52     121.75919005       0.00300000     120.25919005
  4 136 53     120.13476627       0.00300000     118.63476627
  2 135 53     118.77418484       0.00300000     117.27418484
  2 135 54     116.50527019       0.00300000     115.00527019
  2 135 55     113.28866726       0.00300000     111.78866726
  2 135 56     114.14510810       0.00300000     112.64510810
  4 134 56     113.35544961       0.00300000     111.85544961
  4 134 57     111.14775169       0.00300000     109.64775169
  4 134 58     110.65363095       0.00300000     109.15363095
  2 135 58     109.25345451       0.00300000     107.75345451
  2 135 59     107.49762659       0.00300000     105.99762659
  4 134 59     106.20319577       0.00300000     104.70319577
  2 134 60     105.22368488       0.00300000     103.72368488
  4 135 60     104.00361998       0.00300000     102.50361998
  2 134 61     102.65865260       0.00300000     101.15865260
  4 134 62     100.84952257       0.00300000      99.34952257
  2 133 62     100.78308202       0.00300000      99.28308202
  4 132 62     100.71452261       0.00300000      99.21452261
  2 133 63     100.64970042       0.00300000      99.14970042
  4 133 64      99.99754472       0.00300000      98.49754472
  2 132 64      98.46233933       0.00300000      96.96233933
  4 133 65      94.47193682       0.00300000      92.97193682
  2 132 65      92.51922427       0.00300000      91.01922427
  2 132 66      88.41262540       0.00300000      86.91262540
  5 131 66      86.79176672       0.00300000      85.29176672
  2 131 67      85.43293690       0.00300000      83.93293690
  2 132 67      81.79913321       0.00300000      80.29913321
  4 132 68      81.43254440       0.00300000      79.93254440
  2 131 68      80.11879342       0.00300000      78.61879342
  4 130 68      79.44363836       0.00300000      77.94363836
  2 131 69      78.94680578       0.00300000      77.44680578
  2 131 70      78.44161536       0.00300000      76.94161536
  4 130 70      77.02581913       0.00300000      75.52581913
  2 130 71      75.88169070       0.00300000      74.38169070
  2 131 71      75.27444703       0.00300000      73.77444703
  2 130 72      74.35039919       0.00300000      72.85039919
  2 129 72      71.53051449       0.00300000      70.03051449
  2 129 73      69.28648453       0.00300000      67.78648453
  2 128 73      67.40836680       0.00300000      65.90836680
  4 127 73      64.82426588       0.00300000      63.32426588
  2 127 74      63.73814311       0.00300000      62.23814311
  2 128 74      63.72549545       0.00300000      62.22549545
  2 128 75      63.20172925       0.00300000      61.70172925
  2 128 76      62.16729796       0.00300000      60.66729796
  2 127 76      61.55984126       0.00300000      60.05984126
  2 127 77      61.64469944       0.00300000      60.14469944
  2 126 77      60.81585347       0.00300000      59.31585347
  2 126 78      59.00301075       0.00300000      57.50301075
  2 126 79      57.75780237       0.00300000      56.25780237
  2 125 79      54.74524025       0.00300000      53.24524025
  2 125 80      53.08554207       0.00300000      51.58554207
  2 125 81      51.61225016       0.00300000      50.11225016
  2 124 81      48.51375826       0.00300000      47.01375826
  2 124 82      45.27434027       0.00300000      43.77434027
  2 123 82      44.00000000       0.00300000      42.50000000
  2 123 83      44.00000000       0.00300000      42.50000000
  2 123 84      44.00000000       0.00300000      42.50000000
  2 122 84      42.82304527       0.00300000      41.32304527
  2 121 84      41.34148055       0.00300000      39.84148055
  2 121 85      40.85128367       0.00300000      39.35128367
  2 122 85      39.83284838       0.00300000      38.33284838
END period  1

