BEGIN options
  SAVE_FLOWS
END options

BEGIN dimensions
  MAXBOUND  65
END dimensions

BEGIN period  1
  4 136 48     137.09602898       0.00300000     135.59602898
  4 135 48     126.99154310       0.00300000     125.49154310
  4 135 49     121.49553111       0.00300000     119.99553111
  4 135 50     120.00000000       0.00300000     118.50000000
  4 135 51     120.00000000       0.00300000     118.50000000
  4 136 51     120.00000000       0.00300000     118.50000000
  4 136 52     118.88257897       0.00300000     117.38257897
  4 136 53     117.10944145       0.00300000     115.60944145
  2 135 53     115.89562688       0.00300000     114.39562688
  2 135 54     112.48632950       0.00300000     110.98632950
  2 135 55     111.48443414       0.00300000     109.98443414
  2 135 56     110.00000000       0.00300000     108.50000000
  4 134 56     110.00000000       0.00300000     108.50000000
  4 134 57     110.00000000       0.00300000     108.50000000
  4 134 58     110.03651725       0.00300000     108.53651725
  2 135 58     110.06488827       0.00300000     108.56488827
  4 136 58     109.58025536       0.00300000     108.08025536
  4 136 59     109.51105066       0.00300000     108.01105066
  2 135 59     107.93203509       0.00300000     106.43203509
  4 135 60     107.03970068       0.00300000     105.53970068
  2 134 60     106.53478348       0.00300000     105.03478348
  2 134 61     102.99067122       0.00300000     101.49067122
  4 134 62      96.93587809       0.00300000      95.43587809
  2 133 62      95.22136984       0.00300000      93.72136984
  4 132 62      93.97520609       0.00300000      92.47520609
  2 133 63      93.02648648       0.00300000      91.52648648
  4 133 64      90.38236342       0.00300000      88.88236342
  2 132 64      89.27636694       0.00300000      87.77636694
  4 133 65      87.00000000       0.00300000      85.50000000
  2 132 65      87.00000000       0.00300000      85.50000000
  2 132 66      86.06024170       0.00300000      84.56024170
  2 131 67      83.38401524       0.00300000      81.88401524
  2 132 67      80.05168154       0.00300000      78.55168154
  4 132 68      79.82449735       0.00300000      78.32449735
  2 131 68      78.87002292       0.00300000      77.37002292
  2 131 69      76.54928483       0.00300000      75.04928483
  2 131 70      74.32954283       0.00300000      72.82954283
  4 130 70      72.76003528       0.00300000      71.26003528
  2 130 71      70.57226488       0.00300000      69.07226488
  2 131 71      70.45982044       0.00300000      68.95982044
  4 131 72      70.38778344       0.00300000      68.88778344
  2 130 72      69.95744269       0.00300000      68.45744269
  2 129 72      69.82633924       0.00300000      68.32633924
  2 129 73      69.54828426       0.00300000      68.04828426
  2 128 73      67.17251487       0.00300000      65.67251487
  4 127 73      64.87958878       0.00300000      63.37958878
  2 127 74      62.57338894       0.00300000      61.07338894
  2 128 74      62.04515164       0.00300000      60.54515164
  2 128 75      61.00000000       0.00300000      59.50000000
  2 128 76      60.64018359       0.00300000      59.14018359
  2 127 76      59.97629406       0.00300000      58.47629406
  2 127 77      58.62104159       0.00300000      57.12104159
  2 126 77      55.75466566       0.00300000      54.25466566
  2 126 78      55.66623655       0.00300000      54.16623655
  2 126 79      55.59247950       0.00300000      54.09247950
  2 125 79      54.79712578       0.00300000      53.29712578
  2 125 80      52.36168912       0.00300000      50.86168912
  2 125 81      49.84809636       0.00300000      48.34809636
  2 124 81      48.81062889       0.00300000      47.31062889
  2 124 82      45.56645937       0.00300000      44.06645937
  2 124 83      45.00000000       0.00300000      43.50000000
  2 123 83      45.00000000       0.00300000      43.50000000
  2 123 84      45.00000000       0.00300000      43.50000000
  2 122 84      43.64450214       0.00300000      42.14450214
  2 122 85      41.14450214       0.00300000      39.64450214
END period  1

