BEGIN options
  SAVE_FLOWS
END options

BEGIN dimensions
  MAXBOUND  61
END dimensions

BEGIN period  1
  1 127 63     133.90829647
  1 127 64     129.90759546
  1 126 64     129.93673341
  1 127 65     129.99125738
  1 127 66     128.62587265
  1 127 67     122.95573027
  1 127 68     120.01611067
  2 127 69     118.14435255
  1 126 69     116.66926072
  1 126 70     113.21159068
  1 126 71     113.92534847
  1 126 72     111.01750493
  1 126 73     109.36056701
  1 127 73     109.11588841
  2 127 74     108.91807950
  1 126 74     107.79991924
  1 126 75     105.94621315
  2 126 76     104.67430714
  1 125 76     103.62552051
  1 125 77     100.83548983
  2 124 77     100.76195121
  1 124 78     100.68852411
  1 124 79      99.36601739
  1 124 80      93.05544541
  2 124 81      88.85204945
  1 123 81      85.15973261
  2 122 81      84.17234688
  2 122 82      83.85152546
  1 123 82      81.80386432
  2 124 82      81.39127646
  1 123 83      80.31614020
  1 122 83      78.71732369
  1 122 84      78.33158350
  1 123 84      78.12303402
  1 122 85      76.34284002
  2 122 87      72.65677384
  1 121 87      71.51637387
  2 121 88      70.67273938
  1 120 88      68.41243227
  1 119 88      64.74988459
  1 119 90      63.38863382
  2 118 91      61.32201766
  1 118 92      61.47018429
  1 117 92      60.91862443
  2 117 93      59.87448556
  1 118 93      58.66296363
  1 118 94      57.50111456
  1 117 94      54.81320738
  2 116 94      54.19961952
  1 116 95      53.73185070
  1 117 95      52.79493006
  1 117 96      51.49379990
  1 116 96      48.57785326
  1 115 96      46.90994631
  1 115 97      45.55282168
  2 116 97      44.87347992
  1 115 98      44.00000000
  1 114 98      44.00000000
  1 114 99      43.16239610
  1 113 99      41.56033477
  1 113 100      39.89793867
END period  1

