BEGIN options
  SAVE_FLOWS
END options

BEGIN dimensions
  MAXBOUND  67
END dimensions

BEGIN period  1
  1 136 48      44.39288187
  1 135 48     135.60538961
  1 135 49     129.94826262
  1 135 50     129.14142717
  1 135 51     127.32096296
  1 136 51     126.33987079
  1 136 52     122.95966506
  1 136 53     121.11915501
  1 135 53     119.57758449
  1 135 54     117.00685124
  1 135 55     113.28866726
  2 135 56     114.14510810
  1 134 56     113.35544961
  1 134 57     111.14775169
  1 134 58     110.65363095
  1 135 58     109.25345451
  1 135 59     107.49762659
  1 134 59     106.20319577
  1 134 60     105.22368488
  2 135 60     104.00361998
  2 134 61     102.65865260
  2 134 62     100.84952257
  1 133 62     100.78308202
  1 132 62     100.71452261
  2 133 63     100.64970042
  2 133 64      99.99754472
  1 132 64      98.46233933
  2 133 65      94.47193682
  1 132 65      92.51922427
  1 132 66      88.41262540
  3 131 66      86.79176672
  1 131 67      85.43293690
  3 132 67      81.79913321
  2 132 68      81.43254440
  1 131 68      80.11879342
  2 130 68      79.44363836
  1 131 69      78.94680578
  2 131 70      78.44161536
  1 130 70      77.02581913
  1 130 71      75.88169070
  2 131 71      75.27444703
  1 130 72      74.35039919
  1 129 72      71.53051449
  2 129 73      69.28648453
  1 128 73      67.40836680
  1 127 73      64.82426588
  1 127 74      63.73814311
  1 128 74      63.72549545
  1 128 75      63.20172925
  2 128 76      62.16729796
  1 127 76      61.55984126
  1 127 77      61.64469944
  1 126 77      60.81585347
  1 126 78      59.00301075
  1 126 79      57.75780237
  1 125 79      54.74524025
  1 125 80      53.08554207
  1 125 81      51.61225016
  1 124 81      48.51375826
  2 124 82      45.27434027
  1 123 82      44.00000000
  1 123 83      44.00000000
  1 123 84      44.00000000
  1 122 84      42.82304527
  1 121 84      41.34148055
  1 121 85      40.85128367
  1 122 85      39.83284838
END period  1

