BEGIN options
  SAVE_FLOWS
END options

BEGIN dimensions
  MAXBOUND  49
END dimensions

BEGIN period  1
  3 43 103       0.00408163
  3 43 104       0.00408163
  3 43 105       0.00408163
  3 44 101       0.00408163
  3 44 102       0.00408163
  3 45 99       0.00408163
  3 45 100       0.00408163
  3 46 98       0.00408163
  3 47 98       0.00408163
  3 48 97       0.00408163
  3 49 96       0.00408163
  3 50 95       0.00408163
  3 51 95       0.00408163
  3 52 95       0.00408163
  3 53 95       0.00408163
  3 54 94       0.00408163
  3 55 94       0.00408163
  3 56 94       0.00408163
  3 57 92       0.00408163
  3 57 93       0.00408163
  3 58 78       0.00408163
  3 58 79       0.00408163
  3 58 80       0.00408163
  3 58 81       0.00408163
  3 58 82       0.00408163
  3 58 83       0.00408163
  3 58 84       0.00408163
  3 58 85       0.00408163
  3 58 86       0.00408163
  3 58 87       0.00408163
  3 58 90       0.00408163
  3 58 91       0.00408163
  3 59 74       0.00408163
  3 59 75       0.00408163
  3 59 76       0.00408163
  3 59 77       0.00408163
  3 59 88       0.00408163
  3 59 89       0.00408163
  3 60 75       0.00408163
  3 61 76       0.00408163
  3 62 77       0.00408163
  3 63 77       0.00408163
  3 64 76       0.00408163
  3 65 76       0.00408163
  3 66 74       0.00408163
  3 66 75       0.00408163
  3 67 73       0.00408163
  3 67 74       0.00408163
  3 68 74       0.00408163
END period  1

