BEGIN options
  SAVE_FLOWS
END options

BEGIN dimensions
  MAXBOUND  100
END dimensions

BEGIN period  1
  4 43 103       0.00200000
  4 43 104       0.00200000
  4 43 105       0.00200000
  4 44 101       0.00200000
  4 44 102       0.00200000
  4 45 99       0.00200000
  4 45 100       0.00200000
  4 46 98       0.00200000
  4 47 98       0.00200000
  4 48 97       0.00200000
  4 49 96       0.00200000
  4 50 95       0.00200000
  4 51 95       0.00200000
  4 52 95       0.00200000
  4 53 95       0.00200000
  4 54 94       0.00200000
  4 55 94       0.00200000
  4 56 94       0.00200000
  4 57 92       0.00200000
  4 57 93       0.00200000
  4 58 78       0.00200000
  4 58 79       0.00200000
  4 58 80       0.00200000
  4 58 81       0.00200000
  4 58 82       0.00200000
  4 58 83       0.00200000
  4 58 84       0.00200000
  4 58 85       0.00200000
  4 58 86       0.00200000
  4 58 87       0.00200000
  4 58 90       0.00200000
  4 58 91       0.00200000
  4 59 74       0.00200000
  4 59 75       0.00200000
  4 59 76       0.00200000
  4 59 77       0.00200000
  4 59 88       0.00200000
  4 59 89       0.00200000
  4 60 75       0.00200000
  4 61 76       0.00200000
  4 62 77       0.00200000
  4 63 77       0.00200000
  4 64 76       0.00200000
  4 65 76       0.00200000
  4 66 74       0.00200000
  4 66 75       0.00200000
  4 67 73       0.00200000
  4 67 74       0.00200000
  4 68 74       0.00200000
  5 43 103       0.00200000
  5 43 104       0.00200000
  5 43 105       0.00200000
  5 44 101       0.00200000
  5 44 102       0.00200000
  5 45 99       0.00200000
  5 45 100       0.00200000
  5 46 98       0.00200000
  5 47 98       0.00200000
  5 48 97       0.00200000
  5 49 96       0.00200000
  5 50 95       0.00200000
  5 51 93       0.00200000
  5 51 95       0.00200000
  5 52 92       0.00200000
  5 52 93       0.00200000
  5 53 92       0.00200000
  5 54 93       0.00200000
  5 55 94       0.00200000
  5 56 94       0.00200000
  5 57 92       0.00200000
  5 57 93       0.00200000
  5 58 78       0.00200000
  5 58 79       0.00200000
  5 58 80       0.00200000
  5 58 81       0.00200000
  5 58 82       0.00200000
  5 58 83       0.00200000
  5 58 84       0.00200000
  5 58 85       0.00200000
  5 58 86       0.00200000
  5 58 87       0.00200000
  5 58 90       0.00200000
  5 58 91       0.00200000
  5 59 74       0.00200000
  5 59 75       0.00200000
  5 59 76       0.00200000
  5 59 77       0.00200000
  5 59 88       0.00200000
  5 59 89       0.00200000
  5 60 75       0.00200000
  5 61 76       0.00200000
  5 62 77       0.00200000
  5 63 77       0.00200000
  5 64 76       0.00200000
  5 65 76       0.00200000
  5 66 74       0.00200000
  5 66 75       0.00200000
  5 67 73       0.00200000
  5 68 73       0.00200000
  5 69 73       0.00200000
END period  1

