BEGIN options
  SAVE_FLOWS
END options

BEGIN dimensions
  MAXBOUND  49
END dimensions

BEGIN period  1
  4 43 103       0.00306122
  4 43 104       0.00306122
  4 43 105       0.00306122
  4 44 101       0.00306122
  4 44 102       0.00306122
  4 45 99       0.00306122
  4 45 100       0.00306122
  4 46 98       0.00306122
  4 47 98       0.00306122
  4 48 97       0.00306122
  4 49 96       0.00306122
  4 50 95       0.00306122
  4 51 95       0.00306122
  4 52 95       0.00306122
  4 53 95       0.00306122
  4 54 94       0.00306122
  4 55 94       0.00306122
  4 56 94       0.00306122
  4 57 92       0.00306122
  4 57 93       0.00306122
  4 58 78       0.00306122
  4 58 79       0.00306122
  4 58 80       0.00306122
  4 58 81       0.00306122
  4 58 82       0.00306122
  4 58 83       0.00306122
  4 58 84       0.00306122
  4 58 85       0.00306122
  4 58 86       0.00306122
  4 58 87       0.00306122
  4 58 90       0.00306122
  4 58 91       0.00306122
  4 59 74       0.00306122
  4 59 75       0.00306122
  4 59 76       0.00306122
  4 59 77       0.00306122
  4 59 88       0.00306122
  4 59 89       0.00306122
  4 60 75       0.00306122
  4 61 76       0.00306122
  4 62 77       0.00306122
  4 63 77       0.00306122
  4 64 76       0.00306122
  4 65 76       0.00306122
  4 66 74       0.00306122
  4 66 75       0.00306122
  4 67 73       0.00306122
  4 67 74       0.00306122
  4 68 74       0.00306122
END period  1

