BEGIN options
  SAVE_FLOWS
END options

BEGIN dimensions
  MAXBOUND  643
END dimensions

BEGIN period  1
  2 24 130       0.10000000       1.00000000
  2 24 131       0.10000000       1.00000000
  2 25 130       0.10000000       1.00000000
  2 25 131       0.10000000       1.00000000
  2 25 132       0.10000000       1.00000000
  2 26 121       0.10000000       1.00000000
  2 26 122       0.10000000       1.00000000
  2 26 129       0.10000000       1.00000000
  2 26 130       0.10000000       1.00000000
  2 26 131       0.10000000       1.00000000
  2 26 132       0.10000000       1.00000000
  2 27 119       0.10000000       1.00000000
  2 27 120       0.10000000       1.00000000
  2 27 121       0.10000000       1.00000000
  2 27 122       0.10000000       1.00000000
  2 27 123       0.10000000       1.00000000
  2 27 124       0.10000000       1.00000000
  2 27 125       0.10000000       1.00000000
  2 27 126       0.10000000       1.00000000
  2 27 127       0.10000000       1.00000000
  2 27 128       0.10000000       1.00000000
  2 27 129       0.10000000       1.00000000
  2 27 130       0.10000000       1.00000000
  2 27 131       0.10000000       1.00000000
  2 28 119       0.10000000       1.00000000
  2 28 120       0.10000000       1.00000000
  2 28 121       0.10000000       1.00000000
  2 28 122       0.10000000       1.00000000
  2 28 123       0.10000000       1.00000000
  2 28 124       0.10000000       1.00000000
  2 28 125       0.10000000       1.00000000
  2 28 126       0.10000000       1.00000000
  2 28 127       0.10000000       1.00000000
  2 28 128       0.10000000       1.00000000
  2 28 129       0.10000000       1.00000000
  2 28 130       0.10000000       1.00000000
  2 28 131       0.10000000       1.00000000
  2 29 118       0.10000000       1.00000000
  2 29 119       0.10000000       1.00000000
  2 29 120       0.10000000       1.00000000
  2 29 121       0.10000000       1.00000000
  2 29 122       0.10000000       1.00000000
  2 29 123       0.10000000       1.00000000
  2 29 124       0.10000000       1.00000000
  2 29 125       0.10000000       1.00000000
  2 29 126       0.10000000       1.00000000
  2 29 127       0.10000000       1.00000000
  2 29 128       0.10000000       1.00000000
  2 29 129       0.10000000       1.00000000
  2 29 130       0.10000000       1.00000000
  2 29 131       0.10000000       1.00000000
  2 30 118       0.10000000       1.00000000
  2 30 119       0.10000000       1.00000000
  2 30 120       0.10000000       1.00000000
  2 30 121       0.10000000       1.00000000
  2 30 122       0.10000000       1.00000000
  2 30 123       0.10000000       1.00000000
  2 30 124       0.10000000       1.00000000
  2 30 125       0.10000000       1.00000000
  2 30 126       0.10000000       1.00000000
  2 30 127       0.10000000       1.00000000
  2 30 128       0.10000000       1.00000000
  2 30 129       0.10000000       1.00000000
  2 30 130       0.10000000       1.00000000
  2 30 131       0.10000000       1.00000000
  2 31 118       0.10000000       1.00000000
  2 31 119       0.10000000       1.00000000
  2 31 120       0.10000000       1.00000000
  2 31 121       0.10000000       1.00000000
  2 31 122       0.10000000       1.00000000
  2 31 123       0.10000000       1.00000000
  2 31 124       0.10000000       1.00000000
  2 31 125       0.10000000       1.00000000
  2 31 126       0.10000000       1.00000000
  2 31 127       0.10000000       1.00000000
  2 31 128       0.10000000       1.00000000
  2 31 129       0.10000000       1.00000000
  2 31 130       0.10000000       1.00000000
  2 31 131       0.10000000       1.00000000
  2 32 118       0.10000000       1.00000000
  2 32 119       0.10000000       1.00000000
  2 32 120       0.10000000       1.00000000
  2 32 121       0.10000000       1.00000000
  2 32 122       0.10000000       1.00000000
  2 32 123       0.10000000       1.00000000
  2 32 124       0.10000000       1.00000000
  2 32 125       0.10000000       1.00000000
  2 32 126       0.10000000       1.00000000
  2 32 127       0.10000000       1.00000000
  2 32 128       0.10000000       1.00000000
  2 32 129       0.10000000       1.00000000
  2 32 130       0.10000000       1.00000000
  2 33 119       0.10000000       1.00000000
  2 33 120       0.10000000       1.00000000
  2 33 121       0.10000000       1.00000000
  2 33 122       0.10000000       1.00000000
  2 33 123       0.10000000       1.00000000
  2 33 124       0.10000000       1.00000000
  2 33 125       0.10000000       1.00000000
  2 33 126       0.10000000       1.00000000
  2 33 127       0.10000000       1.00000000
  2 33 128       0.10000000       1.00000000
  2 33 129       0.10000000       1.00000000
  2 33 130       0.10000000       1.00000000
  2 34 119       0.10000000       1.00000000
  2 34 120       0.10000000       1.00000000
  2 34 121       0.10000000       1.00000000
  2 34 122       0.10000000       1.00000000
  2 34 123       0.10000000       1.00000000
  2 34 124       0.10000000       1.00000000
  2 34 125       0.10000000       1.00000000
  2 34 126       0.10000000       1.00000000
  2 34 127       0.10000000       1.00000000
  2 34 128       0.10000000       1.00000000
  2 34 129       0.10000000       1.00000000
  2 35 118       0.10000000       1.00000000
  2 35 119       0.10000000       1.00000000
  2 35 120       0.10000000       1.00000000
  2 35 121       0.10000000       1.00000000
  2 35 122       0.10000000       1.00000000
  2 35 123       0.10000000       1.00000000
  2 35 124       0.10000000       1.00000000
  2 35 125       0.10000000       1.00000000
  2 35 126       0.10000000       1.00000000
  2 35 127       0.10000000       1.00000000
  2 35 128       0.10000000       1.00000000
  2 36 117       0.10000000       1.00000000
  2 36 118       0.10000000       1.00000000
  2 36 119       0.10000000       1.00000000
  2 36 120       0.10000000       1.00000000
  2 36 121       0.10000000       1.00000000
  2 36 122       0.10000000       1.00000000
  2 36 123       0.10000000       1.00000000
  2 36 124       0.10000000       1.00000000
  2 36 125       0.10000000       1.00000000
  2 36 126       0.10000000       1.00000000
  2 36 127       0.10000000       1.00000000
  2 36 128       0.10000000       1.00000000
  2 37 117       0.10000000       1.00000000
  2 37 118       0.10000000       1.00000000
  2 37 119       0.10000000       1.00000000
  2 37 120       0.10000000       1.00000000
  2 37 121       0.10000000       1.00000000
  2 37 122       0.10000000       1.00000000
  2 37 123       0.10000000       1.00000000
  2 37 124       0.10000000       1.00000000
  2 37 125       0.10000000       1.00000000
  2 37 126       0.10000000       1.00000000
  2 37 127       0.10000000       1.00000000
  2 38 116       0.10000000       1.00000000
  2 38 117       0.10000000       1.00000000
  2 38 118       0.10000000       1.00000000
  2 38 119       0.10000000       1.00000000
  2 38 120       0.10000000       1.00000000
  2 38 121       0.10000000       1.00000000
  2 38 122       0.10000000       1.00000000
  2 38 123       0.10000000       1.00000000
  2 38 124       0.10000000       1.00000000
  2 38 125       0.10000000       1.00000000
  2 38 126       0.10000000       1.00000000
  2 39 113       0.10000000       1.00000000
  2 39 114       0.10000000       1.00000000
  2 39 115       0.10000000       1.00000000
  2 39 116       0.10000000       1.00000000
  2 39 117       0.10000000       1.00000000
  2 39 118       0.10000000       1.00000000
  2 39 119       0.10000000       1.00000000
  2 39 120       0.10000000       1.00000000
  2 39 121       0.10000000       1.00000000
  2 39 122       0.10000000       1.00000000
  2 39 123       0.10000000       1.00000000
  2 39 124       0.10000000       1.00000000
  2 39 125       0.10000000       1.00000000
  2 39 126       0.10000000       1.00000000
  2 40 112       0.10000000       1.00000000
  2 40 113       0.10000000       1.00000000
  2 40 114       0.10000000       1.00000000
  2 40 115       0.10000000       1.00000000
  2 40 116       0.10000000       1.00000000
  2 40 117       0.10000000       1.00000000
  2 40 118       0.10000000       1.00000000
  2 40 119       0.10000000       1.00000000
  2 40 120       0.10000000       1.00000000
  2 40 121       0.10000000       1.00000000
  2 40 122       0.10000000       1.00000000
  2 40 123       0.10000000       1.00000000
  2 40 124       0.10000000       1.00000000
  2 40 125       0.10000000       1.00000000
  2 40 126       0.10000000       1.00000000
  2 41 111       0.10000000       1.00000000
  2 41 112       0.10000000       1.00000000
  2 41 113       0.10000000       1.00000000
  2 41 114       0.10000000       1.00000000
  2 41 115       0.10000000       1.00000000
  2 41 116       0.10000000       1.00000000
  2 41 117       0.10000000       1.00000000
  2 41 118       0.10000000       1.00000000
  2 41 119       0.10000000       1.00000000
  2 41 120       0.10000000       1.00000000
  2 41 121       0.10000000       1.00000000
  2 41 122       0.10000000       1.00000000
  2 41 123       0.10000000       1.00000000
  2 41 124       0.10000000       1.00000000
  2 41 125       0.10000000       1.00000000
  2 41 126       0.10000000       1.00000000
  2 42 109       0.10000000       1.00000000
  2 42 110       0.10000000       1.00000000
  2 42 111       0.10000000       1.00000000
  2 42 112       0.10000000       1.00000000
  2 42 113       0.10000000       1.00000000
  2 42 114       0.10000000       1.00000000
  2 42 115       0.10000000       1.00000000
  2 42 116       0.10000000       1.00000000
  2 42 117       0.10000000       1.00000000
  2 42 118       0.10000000       1.00000000
  2 42 119       0.10000000       1.00000000
  2 42 120       0.10000000       1.00000000
  2 42 121       0.10000000       1.00000000
  2 42 122       0.10000000       1.00000000
  2 42 123       0.10000000       1.00000000
  2 42 124       0.10000000       1.00000000
  2 42 126       0.10000000       1.00000000
  2 42 127       0.10000000       1.00000000
  2 43 109       0.10000000       1.00000000
  2 43 110       0.10000000       1.00000000
  2 43 111       0.10000000       1.00000000
  2 43 112       0.10000000       1.00000000
  2 43 113       0.10000000       1.00000000
  2 43 114       0.10000000       1.00000000
  2 43 115       0.10000000       1.00000000
  2 43 116       0.10000000       1.00000000
  2 43 117       0.10000000       1.00000000
  2 43 118       0.10000000       1.00000000
  2 43 119       0.10000000       1.00000000
  2 43 120       0.10000000       1.00000000
  2 43 121       0.10000000       1.00000000
  2 43 122       0.10000000       1.00000000
  2 43 123       0.10000000       1.00000000
  2 43 124       0.10000000       1.00000000
  2 43 125       0.10000000       1.00000000
  2 43 126       0.10000000       1.00000000
  2 43 127       0.10000000       1.00000000
  2 44 108       0.10000000       1.00000000
  2 44 109       0.10000000       1.00000000
  2 44 110       0.10000000       1.00000000
  2 44 111       0.10000000       1.00000000
  2 44 112       0.10000000       1.00000000
  2 44 113       0.10000000       1.00000000
  2 44 114       0.10000000       1.00000000
  2 44 115       0.10000000       1.00000000
  2 44 116       0.10000000       1.00000000
  2 44 117       0.10000000       1.00000000
  2 44 118       0.10000000       1.00000000
  2 44 119       0.10000000       1.00000000
  2 44 120       0.10000000       1.00000000
  2 44 121       0.10000000       1.00000000
  2 44 122       0.10000000       1.00000000
  2 44 123       0.10000000       1.00000000
  2 44 125       0.10000000       1.00000000
  2 44 126       0.10000000       1.00000000
  2 44 128       0.10000000       1.00000000
  2 45 107       0.10000000       1.00000000
  2 45 108       0.10000000       1.00000000
  2 45 109       0.10000000       1.00000000
  2 45 110       0.10000000       1.00000000
  2 45 111       0.10000000       1.00000000
  2 45 112       0.10000000       1.00000000
  2 45 113       0.10000000       1.00000000
  2 45 114       0.10000000       1.00000000
  2 45 115       0.10000000       1.00000000
  2 45 116       0.10000000       1.00000000
  2 45 117       0.10000000       1.00000000
  2 45 118       0.10000000       1.00000000
  2 45 119       0.10000000       1.00000000
  2 45 120       0.10000000       1.00000000
  2 45 121       0.10000000       1.00000000
  2 45 122       0.10000000       1.00000000
  2 45 123       0.10000000       1.00000000
  2 45 124       0.10000000       1.00000000
  2 45 125       0.10000000       1.00000000
  2 45 126       0.10000000       1.00000000
  2 45 128       0.10000000       1.00000000
  2 46 107       0.10000000       1.00000000
  2 46 108       0.10000000       1.00000000
  2 46 109       0.10000000       1.00000000
  2 46 110       0.10000000       1.00000000
  2 46 111       0.10000000       1.00000000
  2 46 112       0.10000000       1.00000000
  2 46 113       0.10000000       1.00000000
  2 46 114       0.10000000       1.00000000
  2 46 115       0.10000000       1.00000000
  2 46 116       0.10000000       1.00000000
  2 46 117       0.10000000       1.00000000
  2 46 118       0.10000000       1.00000000
  2 46 119       0.10000000       1.00000000
  2 46 120       0.10000000       1.00000000
  2 46 121       0.10000000       1.00000000
  2 46 122       0.10000000       1.00000000
  2 46 123       0.10000000       1.00000000
  2 46 124       0.10000000       1.00000000
  2 46 125       0.10000000       1.00000000
  2 46 126       0.10000000       1.00000000
  2 46 127       0.10000000       1.00000000
  2 46 128       0.10000000       1.00000000
  2 47 107       0.10000000       1.00000000
  2 47 108       0.10000000       1.00000000
  2 47 109       0.10000000       1.00000000
  2 47 110       0.10000000       1.00000000
  2 47 111       0.10000000       1.00000000
  2 47 112       0.10000000       1.00000000
  2 47 113       0.10000000       1.00000000
  2 47 114       0.10000000       1.00000000
  2 47 115       0.10000000       1.00000000
  2 47 116       0.10000000       1.00000000
  2 47 117       0.10000000       1.00000000
  2 47 118       0.10000000       1.00000000
  2 47 119       0.10000000       1.00000000
  2 47 120       0.10000000       1.00000000
  2 47 121       0.10000000       1.00000000
  2 47 122       0.10000000       1.00000000
  2 47 123       0.10000000       1.00000000
  2 47 124       0.10000000       1.00000000
  2 47 125       0.10000000       1.00000000
  2 47 128       0.10000000       1.00000000
  2 48 106       0.10000000       1.00000000
  2 48 107       0.10000000       1.00000000
  2 48 108       0.10000000       1.00000000
  2 48 109       0.10000000       1.00000000
  2 48 110       0.10000000       1.00000000
  2 48 111       0.10000000       1.00000000
  2 48 112       0.10000000       1.00000000
  2 48 113       0.10000000       1.00000000
  2 48 114       0.10000000       1.00000000
  2 48 115       0.10000000       1.00000000
  2 48 116       0.10000000       1.00000000
  2 48 117       0.10000000       1.00000000
  2 48 118       0.10000000       1.00000000
  2 48 119       0.10000000       1.00000000
  2 48 120       0.10000000       1.00000000
  2 48 121       0.10000000       1.00000000
  2 48 122       0.10000000       1.00000000
  2 48 123       0.10000000       1.00000000
  2 48 124       0.10000000       1.00000000
  2 49 105       0.10000000       1.00000000
  2 49 106       0.10000000       1.00000000
  2 49 107       0.10000000       1.00000000
  2 49 108       0.10000000       1.00000000
  2 49 109       0.10000000       1.00000000
  2 49 110       0.10000000       1.00000000
  2 49 111       0.10000000       1.00000000
  2 49 112       0.10000000       1.00000000
  2 49 113       0.10000000       1.00000000
  2 49 114       0.10000000       1.00000000
  2 49 115       0.10000000       1.00000000
  2 49 116       0.10000000       1.00000000
  2 49 117       0.10000000       1.00000000
  2 49 118       0.10000000       1.00000000
  2 49 119       0.10000000       1.00000000
  2 49 120       0.10000000       1.00000000
  2 49 121       0.10000000       1.00000000
  2 49 122       0.10000000       1.00000000
  2 49 123       0.10000000       1.00000000
  2 49 124       0.10000000       1.00000000
  2 49 125       0.10000000       1.00000000
  2 49 126       0.10000000       1.00000000
  2 49 127       0.10000000       1.00000000
  2 49 128       0.10000000       1.00000000
  2 50 105       0.10000000       1.00000000
  2 50 106       0.10000000       1.00000000
  2 50 109       0.10000000       1.00000000
  2 50 110       0.10000000       1.00000000
  2 50 111       0.10000000       1.00000000
  2 50 112       0.10000000       1.00000000
  2 50 113       0.10000000       1.00000000
  2 50 114       0.10000000       1.00000000
  2 50 115       0.10000000       1.00000000
  2 50 116       0.10000000       1.00000000
  2 50 117       0.10000000       1.00000000
  2 50 118       0.10000000       1.00000000
  2 50 119       0.10000000       1.00000000
  2 50 120       0.10000000       1.00000000
  2 50 121       0.10000000       1.00000000
  2 50 122       0.10000000       1.00000000
  2 50 123       0.10000000       1.00000000
  2 50 124       0.10000000       1.00000000
  2 50 125       0.10000000       1.00000000
  2 50 126       0.10000000       1.00000000
  2 50 127       0.10000000       1.00000000
  2 50 128       0.10000000       1.00000000
  2 51 109       0.10000000       1.00000000
  2 51 110       0.10000000       1.00000000
  2 51 111       0.10000000       1.00000000
  2 51 112       0.10000000       1.00000000
  2 51 113       0.10000000       1.00000000
  2 51 114       0.10000000       1.00000000
  2 51 115       0.10000000       1.00000000
  2 51 116       0.10000000       1.00000000
  2 51 117       0.10000000       1.00000000
  2 51 118       0.10000000       1.00000000
  2 51 119       0.10000000       1.00000000
  2 51 120       0.10000000       1.00000000
  2 51 121       0.10000000       1.00000000
  2 51 122       0.10000000       1.00000000
  2 51 124       0.10000000       1.00000000
  2 51 125       0.10000000       1.00000000
  2 51 126       0.10000000       1.00000000
  2 51 127       0.10000000       1.00000000
  2 52 110       0.10000000       1.00000000
  2 52 111       0.10000000       1.00000000
  2 52 112       0.10000000       1.00000000
  2 52 113       0.10000000       1.00000000
  2 52 114       0.10000000       1.00000000
  2 52 115       0.10000000       1.00000000
  2 52 116       0.10000000       1.00000000
  2 52 117       0.10000000       1.00000000
  2 52 118       0.10000000       1.00000000
  2 52 119       0.10000000       1.00000000
  2 52 120       0.10000000       1.00000000
  2 52 121       0.10000000       1.00000000
  2 52 122       0.10000000       1.00000000
  2 52 124       0.10000000       1.00000000
  2 52 125       0.10000000       1.00000000
  2 52 126       0.10000000       1.00000000
  2 53 110       0.10000000       1.00000000
  2 53 111       0.10000000       1.00000000
  2 53 112       0.10000000       1.00000000
  2 53 113       0.10000000       1.00000000
  2 53 114       0.10000000       1.00000000
  2 53 115       0.10000000       1.00000000
  2 53 116       0.10000000       1.00000000
  2 53 117       0.10000000       1.00000000
  2 53 118       0.10000000       1.00000000
  2 53 119       0.10000000       1.00000000
  2 53 120       0.10000000       1.00000000
  2 53 121       0.10000000       1.00000000
  2 53 122       0.10000000       1.00000000
  2 53 123       0.10000000       1.00000000
  2 53 124       0.10000000       1.00000000
  2 53 125       0.10000000       1.00000000
  2 53 126       0.10000000       1.00000000
  2 54 110       0.10000000       1.00000000
  2 54 111       0.10000000       1.00000000
  2 54 112       0.10000000       1.00000000
  2 54 113       0.10000000       1.00000000
  2 54 114       0.10000000       1.00000000
  2 54 115       0.10000000       1.00000000
  2 54 116       0.10000000       1.00000000
  2 54 117       0.10000000       1.00000000
  2 54 118       0.10000000       1.00000000
  2 54 119       0.10000000       1.00000000
  2 54 120       0.10000000       1.00000000
  2 54 121       0.10000000       1.00000000
  2 54 122       0.10000000       1.00000000
  2 54 123       0.10000000       1.00000000
  2 54 124       0.10000000       1.00000000
  2 54 125       0.10000000       1.00000000
  2 55 110       0.10000000       1.00000000
  2 55 111       0.10000000       1.00000000
  2 55 112       0.10000000       1.00000000
  2 55 113       0.10000000       1.00000000
  2 55 114       0.10000000       1.00000000
  2 55 115       0.10000000       1.00000000
  2 55 116       0.10000000       1.00000000
  2 55 117       0.10000000       1.00000000
  2 55 118       0.10000000       1.00000000
  2 55 119       0.10000000       1.00000000
  2 55 120       0.10000000       1.00000000
  2 55 121       0.10000000       1.00000000
  2 55 122       0.10000000       1.00000000
  2 55 123       0.10000000       1.00000000
  2 55 124       0.10000000       1.00000000
  2 56 110       0.10000000       1.00000000
  2 56 111       0.10000000       1.00000000
  2 56 112       0.10000000       1.00000000
  2 56 113       0.10000000       1.00000000
  2 56 114       0.10000000       1.00000000
  2 56 115       0.10000000       1.00000000
  2 56 116       0.10000000       1.00000000
  2 56 117       0.10000000       1.00000000
  2 56 118       0.10000000       1.00000000
  2 56 119       0.10000000       1.00000000
  2 56 120       0.10000000       1.00000000
  2 56 121       0.10000000       1.00000000
  2 56 122       0.10000000       1.00000000
  2 56 123       0.10000000       1.00000000
  2 56 125       0.10000000       1.00000000
  2 57 111       0.10000000       1.00000000
  2 57 112       0.10000000       1.00000000
  2 57 113       0.10000000       1.00000000
  2 57 114       0.10000000       1.00000000
  2 57 115       0.10000000       1.00000000
  2 57 116       0.10000000       1.00000000
  2 57 117       0.10000000       1.00000000
  2 57 118       0.10000000       1.00000000
  2 57 119       0.10000000       1.00000000
  2 57 120       0.10000000       1.00000000
  2 57 121       0.10000000       1.00000000
  2 57 122       0.10000000       1.00000000
  2 57 123       0.10000000       1.00000000
  2 58 111       0.10000000       1.00000000
  2 58 112       0.10000000       1.00000000
  2 58 113       0.10000000       1.00000000
  2 58 114       0.10000000       1.00000000
  2 58 115       0.10000000       1.00000000
  2 58 116       0.10000000       1.00000000
  2 58 117       0.10000000       1.00000000
  2 58 118       0.10000000       1.00000000
  2 58 119       0.10000000       1.00000000
  2 58 120       0.10000000       1.00000000
  2 58 121       0.10000000       1.00000000
  2 58 122       0.10000000       1.00000000
  2 58 123       0.10000000       1.00000000
  2 58 124       0.10000000       1.00000000
  2 58 125       0.10000000       1.00000000
  2 58 126       0.10000000       1.00000000
  2 59 111       0.10000000       1.00000000
  2 59 112       0.10000000       1.00000000
  2 59 113       0.10000000       1.00000000
  2 59 114       0.10000000       1.00000000
  2 59 115       0.10000000       1.00000000
  2 59 116       0.10000000       1.00000000
  2 59 117       0.10000000       1.00000000
  2 59 118       0.10000000       1.00000000
  2 59 119       0.10000000       1.00000000
  2 59 120       0.10000000       1.00000000
  2 59 121       0.10000000       1.00000000
  2 59 122       0.10000000       1.00000000
  2 59 123       0.10000000       1.00000000
  2 59 124       0.10000000       1.00000000
  2 59 125       0.10000000       1.00000000
  2 59 126       0.10000000       1.00000000
  2 60 112       0.10000000       1.00000000
  2 60 113       0.10000000       1.00000000
  2 60 114       0.10000000       1.00000000
  2 60 115       0.10000000       1.00000000
  2 60 116       0.10000000       1.00000000
  2 60 117       0.10000000       1.00000000
  2 60 118       0.10000000       1.00000000
  2 60 119       0.10000000       1.00000000
  2 60 120       0.10000000       1.00000000
  2 60 121       0.10000000       1.00000000
  2 60 122       0.10000000       1.00000000
  2 60 123       0.10000000       1.00000000
  2 60 124       0.10000000       1.00000000
  2 60 125       0.10000000       1.00000000
  2 60 126       0.10000000       1.00000000
  2 60 127       0.10000000       1.00000000
  2 61 113       0.10000000       1.00000000
  2 61 114       0.10000000       1.00000000
  2 61 115       0.10000000       1.00000000
  2 61 116       0.10000000       1.00000000
  2 61 117       0.10000000       1.00000000
  2 61 118       0.10000000       1.00000000
  2 61 119       0.10000000       1.00000000
  2 61 120       0.10000000       1.00000000
  2 61 125       0.10000000       1.00000000
  2 61 126       0.10000000       1.00000000
  2 62 114       0.10000000       1.00000000
  2 62 115       0.10000000       1.00000000
  2 62 116       0.10000000       1.00000000
  2 62 117       0.10000000       1.00000000
  2 62 125       0.10000000       1.00000000
  2 62 126       0.10000000       1.00000000
  2 62 128       0.10000000       1.00000000
  2 105 120       0.10000000       1.00000000
  2 105 121       0.10000000       1.00000000
  2 105 122       0.10000000       1.00000000
  2 105 123       0.10000000       1.00000000
  2 105 124       0.10000000       1.00000000
  2 105 125       0.10000000       1.00000000
  2 106 120       0.10000000       1.00000000
  2 106 121       0.10000000       1.00000000
  2 106 122       0.10000000       1.00000000
  2 106 123       0.10000000       1.00000000
  2 106 124       0.10000000       1.00000000
  2 106 125       0.10000000       1.00000000
  2 106 126       0.10000000       1.00000000
  2 107 119       0.10000000       1.00000000
  2 107 120       0.10000000       1.00000000
  2 107 121       0.10000000       1.00000000
  2 107 122       0.10000000       1.00000000
  2 107 123       0.10000000       1.00000000
  2 107 124       0.10000000       1.00000000
  2 107 125       0.10000000       1.00000000
  2 107 126       0.10000000       1.00000000
  2 108 119       0.10000000       1.00000000
  2 108 120       0.10000000       1.00000000
  2 108 121       0.10000000       1.00000000
  2 108 122       0.10000000       1.00000000
  2 108 123       0.10000000       1.00000000
  2 108 124       0.10000000       1.00000000
  2 108 125       0.10000000       1.00000000
  2 108 126       0.10000000       1.00000000
  2 109 119       0.10000000       1.00000000
  2 109 120       0.10000000       1.00000000
  2 109 121       0.10000000       1.00000000
  2 109 123       0.10000000       1.00000000
  2 109 124       0.10000000       1.00000000
  2 109 125       0.10000000       1.00000000
  2 109 126       0.10000000       1.00000000
  2 110 120       0.10000000       1.00000000
  2 110 124       0.10000000       1.00000000
  2 110 125       0.10000000       1.00000000
  2 110 126       0.10000000       1.00000000
  2 110 127       0.10000000       1.00000000
  2 111 123       0.10000000       1.00000000
  2 111 124       0.10000000       1.00000000
  2 111 125       0.10000000       1.00000000
  2 111 126       0.10000000       1.00000000
  2 111 127       0.10000000       1.00000000
  2 112 123       0.10000000       1.00000000
  2 112 124       0.10000000       1.00000000
  2 112 125       0.10000000       1.00000000
  2 112 126       0.10000000       1.00000000
  2 113 123       0.10000000       1.00000000
  2 113 124       0.10000000       1.00000000
  2 113 125       0.10000000       1.00000000
  2 113 126       0.10000000       1.00000000
  2 113 127       0.10000000       1.00000000
  2 114 123       0.10000000       1.00000000
  2 114 124       0.10000000       1.00000000
  2 114 125       0.10000000       1.00000000
  2 114 126       0.10000000       1.00000000
  2 114 127       0.10000000       1.00000000
  2 115 123       0.10000000       1.00000000
  2 115 124       0.10000000       1.00000000
  2 115 125       0.10000000       1.00000000
  2 115 126       0.10000000       1.00000000
  2 116 123       0.10000000       1.00000000
  2 116 124       0.10000000       1.00000000
  2 116 125       0.10000000       1.00000000
  2 116 126       0.10000000       1.00000000
  2 117 123       0.10000000       1.00000000
  2 117 124       0.10000000       1.00000000
  2 117 125       0.10000000       1.00000000
  2 117 126       0.10000000       1.00000000
  2 117 127       0.10000000       1.00000000
  2 118 124       0.10000000       1.00000000
  2 118 125       0.10000000       1.00000000
  2 118 126       0.10000000       1.00000000
  2 118 127       0.10000000       1.00000000
  2 119 125       0.10000000       1.00000000
  2 119 126       0.10000000       1.00000000
END period  1

