BEGIN options
  SAVE_FLOWS
END options

BEGIN dimensions
  MAXBOUND  3583
END dimensions

BEGIN period  1
  4 42 106  -1.92097914E-09
  4 43 104  -1.92097914E-09
  4 43 105  -1.92097914E-09
  4 43 106  -1.92097914E-09
  2 44 102  -1.92097914E-09
  4 44 103  -1.92097914E-09
  4 44 104  -1.92097914E-09
  4 44 105  -1.92097914E-09
  2 44 106  -1.92097914E-09
  2 45 100  -1.92097914E-09
  2 45 101  -1.92097914E-09
  2 45 102  -1.92097914E-09
  2 45 103  -1.92097914E-09
  2 45 104  -1.92097914E-09
  2 45 105  -1.92097914E-09
  2 45 106  -1.92097914E-09
  2 45 107  -1.92097914E-09
  2 46 99  -1.92097914E-09
  2 46 100  -1.92097914E-09
  2 46 101  -1.92097914E-09
  2 46 102  -1.92097914E-09
  2 46 103  -1.92097914E-09
  2 46 104  -1.92097914E-09
  2 46 105  -1.92097914E-09
  2 46 106  -1.92097914E-09
  2 46 107  -1.92097914E-09
  2 47 98  -1.92097914E-09
  2 47 99  -1.92097914E-09
  2 47 100  -1.92097914E-09
  2 47 101  -1.92097914E-09
  2 47 102  -1.92097914E-09
  2 47 103  -1.92097914E-09
  2 47 104  -1.92097914E-09
  2 47 105  -1.92097914E-09
  2 47 106  -1.92097914E-09
  2 47 107  -1.92097914E-09
  2 48 97  -1.92097914E-09
  2 48 98  -1.92097914E-09
  2 48 99  -1.92097914E-09
  2 48 100  -1.92097914E-09
  2 48 101  -1.92097914E-09
  2 48 102  -1.92097914E-09
  2 48 103  -1.92097914E-09
  2 48 104  -1.92097914E-09
  2 48 105  -1.92097914E-09
  2 48 106  -1.92097914E-09
  2 48 107  -1.92097914E-09
  2 49 96  -1.92097914E-09
  2 49 97  -1.92097914E-09
  2 49 98  -1.92097914E-09
  2 49 99  -1.92097914E-09
  2 49 100  -1.92097914E-09
  2 49 101  -1.92097914E-09
  2 49 102  -1.92097914E-09
  2 49 103  -1.92097914E-09
  2 49 104  -1.92097914E-09
  2 49 105  -1.92097914E-09
  2 49 106  -1.92097914E-09
  2 49 107  -1.92097914E-09
  2 50 95  -1.92097914E-09
  2 50 96  -1.92097914E-09
  2 50 97  -1.92097914E-09
  2 50 98  -1.92097914E-09
  2 50 99  -1.92097914E-09
  2 50 100  -1.92097914E-09
  2 50 101  -1.92097914E-09
  2 50 102  -1.92097914E-09
  2 50 103  -1.92097914E-09
  2 50 104  -1.92097914E-09
  2 50 105  -1.92097914E-09
  2 50 106  -1.92097914E-09
  2 50 107  -1.92097914E-09
  2 51 95  -1.92097914E-09
  2 51 96  -1.92097914E-09
  2 51 97  -1.92097914E-09
  2 51 98  -1.92097914E-09
  2 51 99  -1.92097914E-09
  2 51 100  -1.92097914E-09
  2 51 101  -1.92097914E-09
  2 51 102  -1.92097914E-09
  2 51 103  -1.92097914E-09
  2 51 104  -1.92097914E-09
  2 51 105  -1.92097914E-09
  2 51 106  -1.92097914E-09
  2 51 107  -1.92097914E-09
  2 51 108  -1.92097914E-09
  2 52 95  -1.92097914E-09
  2 52 96  -1.92097914E-09
  2 52 97  -1.92097914E-09
  2 52 98  -1.92097914E-09
  2 52 99  -1.92097914E-09
  2 52 100  -1.92097914E-09
  2 52 101  -1.92097914E-09
  2 52 102  -1.92097914E-09
  2 52 103  -1.92097914E-09
  2 52 104  -1.92097914E-09
  2 52 105  -1.92097914E-09
  2 52 106  -1.92097914E-09
  2 52 107  -1.92097914E-09
  2 52 108  -1.92097914E-09
  2 53 95  -1.92097914E-09
  2 53 96  -1.92097914E-09
  2 53 97  -1.92097914E-09
  2 53 98  -1.92097914E-09
  2 53 99  -1.92097914E-09
  2 53 100  -1.92097914E-09
  2 53 101  -1.92097914E-09
  2 53 102  -1.92097914E-09
  2 53 103  -1.92097914E-09
  2 53 104  -1.92097914E-09
  2 53 105  -1.92097914E-09
  2 53 106  -1.92097914E-09
  2 53 107  -1.92097914E-09
  2 53 108  -1.92097914E-09
  2 54 95  -1.92097914E-09
  2 54 96  -1.92097914E-09
  2 54 97  -1.92097914E-09
  2 54 98  -1.92097914E-09
  2 54 99  -1.92097914E-09
  2 54 100  -1.92097914E-09
  2 54 101  -1.92097914E-09
  2 54 102  -1.92097914E-09
  2 54 103  -1.92097914E-09
  2 54 104  -1.92097914E-09
  2 54 105  -1.92097914E-09
  2 54 106  -1.92097914E-09
  2 54 107  -1.92097914E-09
  2 54 108  -1.92097914E-09
  2 55 95  -1.92097914E-09
  2 55 96  -1.92097914E-09
  2 55 97  -1.92097914E-09
  2 55 98  -1.92097914E-09
  2 55 99  -1.92097914E-09
  2 55 100  -1.92097914E-09
  2 55 101  -1.92097914E-09
  2 55 102  -1.92097914E-09
  2 55 103  -1.92097914E-09
  2 55 104  -1.92097914E-09
  2 55 105  -1.92097914E-09
  2 55 106  -1.92097914E-09
  2 55 107  -1.92097914E-09
  2 55 108  -1.92097914E-09
  2 56 95  -1.92097914E-09
  2 56 96  -1.92097914E-09
  2 56 97  -1.92097914E-09
  2 56 98  -1.92097914E-09
  2 56 99  -1.92097914E-09
  2 56 100  -1.92097914E-09
  2 56 101  -1.92097914E-09
  2 56 102  -1.92097914E-09
  2 56 103  -1.92097914E-09
  2 56 104  -1.92097914E-09
  2 56 105  -1.92097914E-09
  2 56 106  -1.92097914E-09
  2 56 107  -1.92097914E-09
  2 56 108  -1.92097914E-09
  2 57 95  -1.92097914E-09
  2 57 96  -1.92097914E-09
  2 57 97  -1.92097914E-09
  2 57 98  -1.92097914E-09
  2 57 99  -1.92097914E-09
  2 57 100  -1.92097914E-09
  2 57 101  -1.92097914E-09
  2 57 102  -1.92097914E-09
  2 57 103  -1.92097914E-09
  2 57 104  -1.92097914E-09
  2 57 105  -1.92097914E-09
  2 57 106  -1.92097914E-09
  2 57 107  -1.92097914E-09
  2 57 108  -1.92097914E-09
  2 57 109  -1.92097914E-09
  2 58 95  -1.92097914E-09
  2 58 96  -1.92097914E-09
  2 58 97  -1.92097914E-09
  2 58 98  -1.92097914E-09
  2 58 99  -1.92097914E-09
  2 58 100  -1.92097914E-09
  2 58 101  -1.92097914E-09
  2 58 102  -1.92097914E-09
  2 58 103  -1.92097914E-09
  2 58 104  -1.92097914E-09
  2 58 105  -1.92097914E-09
  2 58 106  -1.92097914E-09
  2 58 107  -1.92097914E-09
  2 58 108  -1.92097914E-09
  2 58 109  -1.92097914E-09
  2 59 95  -1.92097914E-09
  2 59 96  -1.92097914E-09
  2 59 97  -1.92097914E-09
  2 59 98  -1.92097914E-09
  2 59 99  -1.92097914E-09
  2 59 100  -1.92097914E-09
  2 59 101  -1.92097914E-09
  2 59 102  -1.92097914E-09
  2 59 103  -1.92097914E-09
  2 59 104  -1.92097914E-09
  2 59 105  -1.92097914E-09
  2 59 106  -1.92097914E-09
  2 59 107  -1.92097914E-09
  2 59 108  -1.92097914E-09
  2 59 109  -1.92097914E-09
  2 60 96  -1.92097914E-09
  2 60 97  -1.92097914E-09
  2 60 98  -1.92097914E-09
  2 60 99  -1.92097914E-09
  2 60 100  -1.92097914E-09
  2 60 101  -1.92097914E-09
  2 60 102  -1.92097914E-09
  2 60 103  -1.92097914E-09
  2 60 104  -1.92097914E-09
  2 60 105  -1.92097914E-09
  2 60 106  -1.92097914E-09
  2 60 107  -1.92097914E-09
  2 60 108  -1.92097914E-09
  2 60 109  -1.92097914E-09
  2 61 97  -1.92097914E-09
  2 61 98  -1.92097914E-09
  2 61 99  -1.92097914E-09
  2 61 100  -1.92097914E-09
  2 61 101  -1.92097914E-09
  2 61 102  -1.92097914E-09
  2 61 103  -1.92097914E-09
  2 61 104  -1.92097914E-09
  2 61 105  -1.92097914E-09
  2 61 106  -1.92097914E-09
  2 61 107  -1.92097914E-09
  2 61 108  -1.92097914E-09
  2 61 109  -1.92097914E-09
  2 61 110  -1.92097914E-09
  2 62 97  -1.92097914E-09
  2 62 98  -1.92097914E-09
  2 62 99  -1.92097914E-09
  2 62 100  -1.92097914E-09
  2 62 101  -1.92097914E-09
  2 62 102  -1.92097914E-09
  2 62 103  -1.92097914E-09
  2 62 104  -1.92097914E-09
  2 62 105  -1.92097914E-09
  2 62 106  -1.92097914E-09
  2 62 107  -1.92097914E-09
  2 62 108  -1.92097914E-09
  2 62 109  -1.92097914E-09
  2 62 110  -1.92097914E-09
  2 62 111  -1.92097914E-09
  2 62 112  -1.92097914E-09
  2 63 97  -1.92097914E-09
  2 63 98  -1.92097914E-09
  2 63 99  -1.92097914E-09
  2 63 100  -1.92097914E-09
  2 63 101  -1.92097914E-09
  2 63 102  -1.92097914E-09
  2 63 103  -1.92097914E-09
  2 63 104  -1.92097914E-09
  2 63 105  -1.92097914E-09
  2 63 106  -1.92097914E-09
  2 63 107  -1.92097914E-09
  2 63 108  -1.92097914E-09
  2 63 109  -1.92097914E-09
  2 63 110  -1.92097914E-09
  2 63 111  -1.92097914E-09
  2 63 112  -1.92097914E-09
  2 63 113  -1.92097914E-09
  2 64 98  -1.92097914E-09
  2 64 99  -1.92097914E-09
  2 64 100  -1.92097914E-09
  2 64 101  -1.92097914E-09
  2 64 102  -1.92097914E-09
  2 64 103  -1.92097914E-09
  2 64 104  -1.92097914E-09
  2 64 105  -1.92097914E-09
  2 64 106  -1.92097914E-09
  2 64 107  -1.92097914E-09
  2 64 108  -1.92097914E-09
  2 64 109  -1.92097914E-09
  2 64 110  -1.92097914E-09
  2 64 111  -1.92097914E-09
  2 64 112  -1.92097914E-09
  2 64 113  -1.92097914E-09
  2 64 114  -1.92097914E-09
  2 65 74  -1.92097914E-09
  2 65 75  -1.92097914E-09
  2 65 99  -1.92097914E-09
  2 65 100  -1.92097914E-09
  2 65 101  -1.92097914E-09
  2 65 102  -1.92097914E-09
  2 65 103  -1.92097914E-09
  2 65 104  -1.92097914E-09
  2 65 105  -1.92097914E-09
  2 65 106  -1.92097914E-09
  2 65 107  -1.92097914E-09
  2 65 108  -1.92097914E-09
  2 65 109  -1.92097914E-09
  2 65 110  -1.92097914E-09
  2 65 111  -1.92097914E-09
  2 65 112  -1.92097914E-09
  2 65 113  -1.92097914E-09
  2 65 114  -1.92097914E-09
  2 65 115  -1.92097914E-09
  2 65 116  -1.92097914E-09
  2 66 73  -1.92097914E-09
  2 66 74  -1.92097914E-09
  2 66 75  -1.92097914E-09
  2 66 77  -1.92097914E-09
  2 66 78  -1.92097914E-09
  2 66 83  -1.92097914E-09
  2 66 84  -1.92097914E-09
  2 66 101  -1.92097914E-09
  2 66 102  -1.92097914E-09
  2 66 103  -1.92097914E-09
  2 66 104  -1.92097914E-09
  2 66 105  -1.92097914E-09
  2 66 106  -1.92097914E-09
  2 66 107  -1.92097914E-09
  2 66 108  -1.92097914E-09
  2 66 109  -1.92097914E-09
  2 66 110  -1.92097914E-09
  2 66 111  -1.92097914E-09
  2 66 112  -1.92097914E-09
  2 66 113  -1.92097914E-09
  2 66 114  -1.92097914E-09
  2 66 115  -1.92097914E-09
  2 66 116  -1.92097914E-09
  2 66 117  -1.92097914E-09
  2 66 118  -1.92097914E-09
  2 67 73  -1.92097914E-09
  2 67 74  -1.92097914E-09
  2 67 75  -1.92097914E-09
  2 67 76  -1.92097914E-09
  2 67 77  -1.92097914E-09
  2 67 82  -1.92097914E-09
  2 67 83  -1.92097914E-09
  2 67 103  -1.92097914E-09
  2 67 104  -1.92097914E-09
  2 67 105  -1.92097914E-09
  2 67 106  -1.92097914E-09
  2 67 107  -1.92097914E-09
  2 67 108  -1.92097914E-09
  2 67 109  -1.92097914E-09
  2 67 110  -1.92097914E-09
  2 67 111  -1.92097914E-09
  2 67 112  -1.92097914E-09
  2 67 113  -1.92097914E-09
  2 67 114  -1.92097914E-09
  2 67 115  -1.92097914E-09
  2 67 116  -1.92097914E-09
  2 67 117  -1.92097914E-09
  2 67 118  -1.92097914E-09
  2 67 119  -1.92097914E-09
  2 67 120  -1.92097914E-09
  2 68 73  -1.92097914E-09
  2 68 74  -1.92097914E-09
  2 68 75  -1.92097914E-09
  2 68 76  -1.92097914E-09
  2 68 77  -1.92097914E-09
  2 68 78  -1.92097914E-09
  2 68 79  -1.92097914E-09
  2 68 80  -1.92097914E-09
  2 68 88  -1.92097914E-09
  2 68 89  -1.92097914E-09
  2 68 90  -1.92097914E-09
  2 68 105  -1.92097914E-09
  2 68 106  -1.92097914E-09
  2 68 107  -1.92097914E-09
  2 68 108  -1.92097914E-09
  2 68 109  -1.92097914E-09
  2 68 110  -1.92097914E-09
  2 68 111  -1.92097914E-09
  2 68 112  -1.92097914E-09
  2 68 113  -1.92097914E-09
  2 68 114  -1.92097914E-09
  2 68 115  -1.92097914E-09
  2 68 116  -1.92097914E-09
  2 68 117  -1.92097914E-09
  2 68 118  -1.92097914E-09
  2 68 119  -1.92097914E-09
  2 68 120  -1.92097914E-09
  2 68 121  -1.92097914E-09
  2 69 72  -1.15423643E-09
  2 69 73  -1.15423643E-09
  2 69 74  -1.15423643E-09
  2 69 75  -1.92097914E-09
  2 69 76  -1.92097914E-09
  2 69 77  -1.92097914E-09
  2 69 78  -1.92097914E-09
  2 69 79  -1.92097914E-09
  2 69 80  -1.92097914E-09
  2 69 81  -1.92097914E-09
  2 69 88  -1.92097914E-09
  2 69 89  -1.92097914E-09
  2 69 90  -1.92097914E-09
  2 69 108  -1.92097914E-09
  2 69 109  -1.92097914E-09
  2 69 110  -1.92097914E-09
  2 69 111  -1.92097914E-09
  2 69 112  -1.92097914E-09
  2 69 113  -1.92097914E-09
  2 69 114  -1.92097914E-09
  2 69 115  -1.92097914E-09
  2 69 116  -1.92097914E-09
  2 69 117  -1.92097914E-09
  2 69 118  -1.92097914E-09
  2 69 119  -1.92097914E-09
  2 69 120  -1.92097914E-09
  2 69 121  -1.92097914E-09
  2 70 72  -1.15423643E-09
  2 70 73  -1.15423643E-09
  2 70 74  -1.15423643E-09
  2 70 75  -1.15423643E-09
  2 70 76  -1.92097914E-09
  2 70 77  -1.92097914E-09
  2 70 78  -1.92097914E-09
  2 70 79  -1.92097914E-09
  2 70 80  -1.92097914E-09
  2 70 81  -1.92097914E-09
  2 70 87  -1.92097914E-09
  2 70 88  -1.92097914E-09
  2 70 89  -1.92097914E-09
  2 70 90  -1.92097914E-09
  2 70 109  -1.92097914E-09
  2 70 110  -1.92097914E-09
  2 70 111  -1.92097914E-09
  2 70 112  -1.92097914E-09
  2 70 113  -1.92097914E-09
  2 70 114  -1.92097914E-09
  2 70 115  -1.92097914E-09
  2 70 116  -1.92097914E-09
  2 70 117  -1.92097914E-09
  2 70 118  -1.92097914E-09
  2 70 119  -1.92097914E-09
  2 70 120  -1.92097914E-09
  2 70 121  -1.92097914E-09
  2 70 122  -1.92097914E-09
  2 71 72  -1.15423643E-09
  2 71 73  -1.15423643E-09
  2 71 74  -1.15423643E-09
  2 71 75  -1.15423643E-09
  2 71 76  -1.15423643E-09
  2 71 77  -1.92097914E-09
  2 71 78  -1.92097914E-09
  2 71 79  -1.92097914E-09
  2 71 80  -1.92097914E-09
  2 71 81  -1.92097914E-09
  2 71 82  -1.92097914E-09
  2 71 85  -1.92097914E-09
  2 71 86  -1.92097914E-09
  2 71 87  -7.16451053E-09
  2 71 88  -7.16451053E-09
  2 71 89  -7.16451053E-09
  2 71 90  -1.92097914E-09
  2 71 91  -1.92097914E-09
  2 71 92  -7.16451053E-09
  2 71 93  -1.92097914E-09
  2 71 109  -1.92097914E-09
  2 71 110  -1.92097914E-09
  2 71 111  -1.92097914E-09
  2 71 112  -1.92097914E-09
  2 71 113  -1.92097914E-09
  2 71 114  -1.92097914E-09
  2 71 115  -1.92097914E-09
  2 71 116  -1.92097914E-09
  2 71 117  -1.92097914E-09
  2 71 118  -1.92097914E-09
  2 71 119  -1.92097914E-09
  2 71 120  -1.92097914E-09
  2 71 121  -1.92097914E-09
  2 71 122  -1.92097914E-09
  2 72 73  -1.15423643E-09
  2 72 74  -1.15423643E-09
  2 72 75  -1.15423643E-09
  2 72 76  -1.15423643E-09
  2 72 83  -1.92097914E-09
  2 72 84  -1.92097914E-09
  2 72 85  -1.92097914E-09
  2 72 86  -1.92097914E-09
  2 72 87  -1.92097914E-09
  2 72 88  -1.92097914E-09
  2 72 89  -7.16451053E-09
  2 72 90  -7.16451053E-09
  2 72 91  -7.16451053E-09
  2 72 92  -7.16451053E-09
  2 72 93  -7.16451053E-09
  2 72 94  -1.92097914E-09
  2 72 109  -1.92097914E-09
  2 72 110  -1.92097914E-09
  2 72 111  -1.92097914E-09
  2 72 112  -1.92097914E-09
  2 72 113  -1.92097914E-09
  2 72 114  -1.92097914E-09
  2 72 115  -1.92097914E-09
  2 72 116  -1.92097914E-09
  2 72 117  -1.92097914E-09
  2 72 118  -1.92097914E-09
  2 72 119  -1.92097914E-09
  2 72 120  -1.92097914E-09
  2 72 121  -1.92097914E-09
  2 72 122  -1.92097914E-09
  2 72 123  -1.92097914E-09
  4 73 74  -1.15423643E-09
  2 73 75  -1.15423643E-09
  2 73 76  -1.15423643E-09
  2 73 83  -1.92097914E-09
  2 73 84  -1.92097914E-09
  2 73 85  -1.92097914E-09
  2 73 86  -1.92097914E-09
  2 73 87  -1.92097914E-09
  2 73 88  -1.92097914E-09
  2 73 89  -1.92097914E-09
  2 73 90  -1.92097914E-09
  2 73 91  -1.92097914E-09
  2 73 92  -1.92097914E-09
  2 73 93  -1.92097914E-09
  2 73 94  -1.92097914E-09
  2 73 95  -1.92097914E-09
  2 73 98  -1.92097914E-09
  2 73 99  -1.92097914E-09
  2 73 100  -1.92097914E-09
  2 73 101  -1.92097914E-09
  2 73 109  -1.92097914E-09
  2 73 110  -1.92097914E-09
  2 73 111  -1.92097914E-09
  2 73 112  -1.92097914E-09
  2 73 113  -1.92097914E-09
  2 73 114  -1.92097914E-09
  2 73 115  -1.92097914E-09
  2 73 116  -1.92097914E-09
  2 73 117  -1.92097914E-09
  2 73 118  -1.92097914E-09
  2 73 119  -1.92097914E-09
  2 73 120  -1.92097914E-09
  2 73 121  -1.92097914E-09
  2 73 122  -1.92097914E-09
  2 73 123  -1.92097914E-09
  2 74 76  -1.15423643E-09
  2 74 87  -1.92097914E-09
  2 74 88  -1.92097914E-09
  2 74 89  -1.92097914E-09
  2 74 90  -1.92097914E-09
  2 74 91  -1.92097914E-09
  2 74 92  -1.92097914E-09
  2 74 93  -1.92097914E-09
  2 74 94  -1.92097914E-09
  2 74 95  -7.16451053E-09
  2 74 96  -1.92097914E-09
  2 74 97  -1.92097914E-09
  2 74 98  -7.16451053E-09
  2 74 99  -7.16451053E-09
  2 74 100  -7.16451053E-09
  2 74 101  -1.92097914E-09
  2 74 102  -1.92097914E-09
  2 74 109  -1.92097914E-09
  2 74 110  -1.92097914E-09
  2 74 111  -1.92097914E-09
  2 74 112  -1.92097914E-09
  2 74 113  -1.92097914E-09
  2 74 114  -1.92097914E-09
  2 74 115  -1.92097914E-09
  2 74 116  -1.92097914E-09
  2 74 117  -1.92097914E-09
  2 74 118  -1.92097914E-09
  2 74 119  -1.92097914E-09
  2 74 120  -1.92097914E-09
  2 74 121  -1.92097914E-09
  2 74 122  -1.92097914E-09
  2 74 123  -1.92097914E-09
  2 75 86  -1.92097914E-09
  2 75 87  -1.92097914E-09
  2 75 88  -1.92097914E-09
  2 75 89  -1.92097914E-09
  2 75 90  -1.92097914E-09
  2 75 91  -1.92097914E-09
  2 75 92  -1.92097914E-09
  2 75 93  -1.92097914E-09
  2 75 94  -1.92097914E-09
  2 75 95  -7.16451053E-09
  2 75 96  -7.16451053E-09
  2 75 97  -7.16451053E-09
  2 75 98  -7.16451053E-09
  2 75 99  -7.16451053E-09
  2 75 100  -7.16451053E-09
  2 75 101  -1.92097914E-09
  2 75 102  -1.92097914E-09
  2 75 103  -1.92097914E-09
  2 75 104  -1.92097914E-09
  2 75 105  -1.92097914E-09
  2 75 106  -1.92097914E-09
  2 75 107  -1.92097914E-09
  2 75 108  -1.92097914E-09
  2 75 109  -1.92097914E-09
  2 75 110  -1.92097914E-09
  2 75 111  -1.92097914E-09
  2 75 112  -1.92097914E-09
  2 75 113  -1.92097914E-09
  2 75 114  -1.92097914E-09
  2 75 115  -1.92097914E-09
  2 75 116  -1.92097914E-09
  2 75 117  -1.92097914E-09
  2 75 118  -1.92097914E-09
  2 75 119  -1.92097914E-09
  2 75 120  -1.92097914E-09
  2 75 121  -1.92097914E-09
  2 75 122  -1.92097914E-09
  2 75 123  -1.92097914E-09
  2 76 87  -1.92097914E-09
  2 76 88  -1.92097914E-09
  2 76 89  -1.92097914E-09
  2 76 90  -1.92097914E-09
  2 76 91  -1.92097914E-09
  2 76 92  -1.92097914E-09
  2 76 93  -1.92097914E-09
  2 76 94  -1.92097914E-09
  2 76 95  -1.92097914E-09
  2 76 96  -7.16451053E-09
  2 76 97  -7.16451053E-09
  2 76 98  -7.16451053E-09
  2 76 99  -7.16451053E-09
  2 76 101  -1.92097914E-09
  2 76 102  -1.92097914E-09
  2 76 103  -1.92097914E-09
  2 76 104  -1.92097914E-09
  2 76 105  -1.92097914E-09
  2 76 106  -1.92097914E-09
  2 76 107  -1.92097914E-09
  2 76 108  -1.92097914E-09
  2 76 109  -1.92097914E-09
  2 76 110  -1.92097914E-09
  2 76 111  -1.92097914E-09
  2 76 112  -1.92097914E-09
  2 76 113  -1.92097914E-09
  2 76 114  -1.92097914E-09
  2 76 115  -1.92097914E-09
  2 76 116  -1.92097914E-09
  2 76 117  -1.92097914E-09
  2 76 118  -1.92097914E-09
  2 76 119  -1.92097914E-09
  2 76 120  -1.92097914E-09
  2 76 121  -1.92097914E-09
  2 76 122  -1.92097914E-09
  2 76 123  -1.92097914E-09
  2 77 88  -1.92097914E-09
  2 77 89  -1.92097914E-09
  2 77 90  -1.92097914E-09
  2 77 91  -1.92097914E-09
  2 77 92  -1.92097914E-09
  2 77 93  -1.92097914E-09
  2 77 94  -1.92097914E-09
  2 77 95  -1.92097914E-09
  2 77 96  -1.92097914E-09
  2 77 97  -1.92097914E-09
  2 77 98  -1.92097914E-09
  2 77 99  -1.92097914E-09
  2 77 100  -1.92097914E-09
  2 77 101  -1.92097914E-09
  2 77 102  -1.92097914E-09
  2 77 103  -1.92097914E-09
  2 77 104  -1.92097914E-09
  2 77 105  -1.92097914E-09
  2 77 106  -1.92097914E-09
  2 77 107  -2.10235917E-10
  2 77 108  -1.92097914E-09
  2 77 109  -1.92097914E-09
  2 77 110  -1.92097914E-09
  2 77 111  -1.92097914E-09
  2 77 112  -1.92097914E-09
  2 77 113  -1.92097914E-09
  2 77 114  -1.92097914E-09
  2 77 115  -1.92097914E-09
  2 77 116  -1.92097914E-09
  2 77 117  -1.92097914E-09
  2 77 118  -1.92097914E-09
  2 77 119  -1.92097914E-09
  2 77 120  -1.92097914E-09
  2 77 121  -1.92097914E-09
  2 77 122  -1.92097914E-09
  2 77 123  -1.92097914E-09
  2 78 91  -1.92097914E-09
  2 78 92  -1.92097914E-09
  2 78 93  -1.92097914E-09
  2 78 94  -1.92097914E-09
  2 78 95  -1.92097914E-09
  2 78 96  -1.92097914E-09
  2 78 97  -1.92097914E-09
  2 78 98  -1.92097914E-09
  2 78 99  -1.92097914E-09
  2 78 100  -1.92097914E-09
  2 78 101  -1.92097914E-09
  2 78 102  -1.92097914E-09
  2 78 103  -1.92097914E-09
  2 78 104  -1.92097914E-09
  2 78 105  -1.92097914E-09
  2 78 106  -1.92097914E-09
  2 78 107  -2.10235917E-10
  2 78 108  -2.10235917E-10
  2 78 109  -2.10235917E-10
  2 78 110  -2.10235917E-10
  2 78 111  -1.92097914E-09
  2 78 112  -1.92097914E-09
  2 78 113  -1.92097914E-09
  2 78 114  -1.92097914E-09
  2 78 115  -1.92097914E-09
  2 78 116  -1.92097914E-09
  2 78 117  -1.92097914E-09
  2 78 118  -1.92097914E-09
  2 78 119  -1.92097914E-09
  2 78 120  -1.92097914E-09
  2 78 121  -1.92097914E-09
  2 78 122  -1.92097914E-09
  2 78 123  -1.92097914E-09
  2 79 92  -1.92097914E-09
  2 79 93  -1.92097914E-09
  2 79 94  -1.92097914E-09
  2 79 95  -1.92097914E-09
  2 79 96  -1.92097914E-09
  2 79 97  -1.92097914E-09
  2 79 98  -1.92097914E-09
  2 79 99  -1.92097914E-09
  2 79 100  -1.92097914E-09
  2 79 101  -1.92097914E-09
  2 79 102  -1.92097914E-09
  2 79 103  -1.92097914E-09
  2 79 104  -1.92097914E-09
  2 79 105  -1.92097914E-09
  2 79 106  -1.92097914E-09
  2 79 107  -2.10235917E-10
  2 79 108  -2.10235917E-10
  2 79 109  -1.92097914E-09
  2 79 110  -1.92097914E-09
  2 79 111  -1.92097914E-09
  2 79 112  -1.92097914E-09
  2 79 113  -1.92097914E-09
  2 79 114  -1.92097914E-09
  2 79 115  -1.92097914E-09
  2 79 116  -1.92097914E-09
  2 79 117  -1.92097914E-09
  2 79 118  -1.92097914E-09
  2 79 119  -1.92097914E-09
  2 79 120  -1.92097914E-09
  2 79 121  -1.92097914E-09
  2 79 122  -1.92097914E-09
  2 79 123  -1.92097914E-09
  2 80 95  -1.92097914E-09
  2 80 96  -1.92097914E-09
  2 80 97  -1.92097914E-09
  2 80 98  -1.92097914E-09
  2 80 99  -1.92097914E-09
  2 80 100  -1.92097914E-09
  2 80 101  -1.92097914E-09
  2 80 102  -1.92097914E-09
  2 80 103  -1.92097914E-09
  2 80 104  -1.92097914E-09
  2 80 105  -1.92097914E-09
  2 80 106  -1.92097914E-09
  2 80 107  -1.92097914E-09
  2 80 108  -1.92097914E-09
  2 80 109  -1.92097914E-09
  2 80 110  -1.92097914E-09
  2 80 111  -1.92097914E-09
  2 80 112  -1.92097914E-09
  2 80 113  -1.92097914E-09
  2 80 114  -1.92097914E-09
  2 80 115  -1.92097914E-09
  2 80 116  -1.92097914E-09
  2 80 117  -1.92097914E-09
  2 80 118  -1.92097914E-09
  2 80 119  -1.92097914E-09
  2 80 120  -1.92097914E-09
  2 80 121  -1.92097914E-09
  2 80 122  -1.92097914E-09
  2 80 123  -1.92097914E-09
  2 81 96  -1.92097914E-09
  2 81 97  -1.92097914E-09
  2 81 98  -1.92097914E-09
  2 81 99  -1.92097914E-09
  2 81 100  -1.92097914E-09
  2 81 101  -1.92097914E-09
  2 81 102  -1.92097914E-09
  2 81 103  -1.92097914E-09
  2 81 104  -1.92097914E-09
  2 81 105  -1.92097914E-09
  2 81 106  -1.92097914E-09
  2 81 107  -1.92097914E-09
  2 81 108  -1.92097914E-09
  2 81 109  -1.92097914E-09
  2 81 110  -1.92097914E-09
  2 81 111  -1.92097914E-09
  2 81 112  -1.92097914E-09
  2 81 113  -1.92097914E-09
  2 81 114  -1.92097914E-09
  2 81 115  -1.92097914E-09
  2 81 116  -1.92097914E-09
  2 81 117  -1.92097914E-09
  2 81 118  -1.92097914E-09
  2 81 119  -1.92097914E-09
  2 81 120  -1.92097914E-09
  2 81 121  -1.92097914E-09
  2 81 122  -1.92097914E-09
  2 82 101  -1.92097914E-09
  2 82 102  -1.92097914E-09
  2 82 103  -1.92097914E-09
  2 82 104  -1.92097914E-09
  2 82 105  -1.92097914E-09
  2 82 106  -1.92097914E-09
  2 82 107  -1.92097914E-09
  2 82 108  -1.92097914E-09
  2 82 109  -1.92097914E-09
  2 82 110  -1.92097914E-09
  2 82 111  -1.92097914E-09
  2 82 112  -1.92097914E-09
  2 82 113  -1.92097914E-09
  2 82 114  -1.92097914E-09
  2 82 115  -1.92097914E-09
  2 82 116  -1.92097914E-09
  2 82 117  -1.92097914E-09
  2 82 118  -1.92097914E-09
  2 82 119  -1.92097914E-09
  2 82 120  -1.92097914E-09
  2 82 121  -1.92097914E-09
  2 83 102  -1.92097914E-09
  2 83 103  -1.92097914E-09
  2 83 104  -1.92097914E-09
  2 83 105  -1.92097914E-09
  2 83 106  -1.92097914E-09
  2 83 107  -1.92097914E-09
  2 83 108  -1.92097914E-09
  2 83 109  -1.92097914E-09
  2 83 110  -1.92097914E-09
  2 83 111  -1.92097914E-09
  2 83 112  -1.92097914E-09
  2 83 113  -1.92097914E-09
  2 83 114  -1.92097914E-09
  2 83 115  -1.92097914E-09
  2 83 116  -1.92097914E-09
  2 83 117  -1.92097914E-09
  2 83 118  -1.92097914E-09
  2 83 119  -1.92097914E-09
  2 83 120  -1.92097914E-09
  2 83 121  -1.92097914E-09
  2 84 99  -3.99860469E-10
  2 84 100  -3.99860469E-10
  2 84 103  -1.92097914E-09
  2 84 104  -1.92097914E-09
  2 84 105  -1.92097914E-09
  2 84 106  -1.92097914E-09
  2 84 107  -1.92097914E-09
  2 84 108  -1.92097914E-09
  2 84 109  -1.92097914E-09
  2 84 110  -1.92097914E-09
  2 84 111  -1.92097914E-09
  2 84 112  -1.92097914E-09
  2 84 113  -1.92097914E-09
  2 84 114  -1.92097914E-09
  2 84 115  -1.92097914E-09
  2 84 116  -1.92097914E-09
  2 84 117  -1.92097914E-09
  2 84 118  -1.92097914E-09
  2 84 119  -1.92097914E-09
  2 84 120  -1.92097914E-09
  2 85 97  -3.99860469E-10
  2 85 98  -3.99860469E-10
  2 85 99  -3.99860469E-10
  2 85 100  -3.99860469E-10
  2 85 101  -3.99860469E-10
  2 85 103  -1.92097914E-09
  2 85 104  -1.92097914E-09
  2 85 105  -1.92097914E-09
  2 85 106  -1.92097914E-09
  2 85 107  -1.92097914E-09
  2 85 108  -1.92097914E-09
  2 85 109  -1.92097914E-09
  2 85 110  -1.92097914E-09
  2 85 111  -1.92097914E-09
  2 85 112  -1.92097914E-09
  2 85 113  -1.92097914E-09
  2 85 114  -1.92097914E-09
  2 85 115  -1.92097914E-09
  2 85 116  -1.92097914E-09
  2 85 117  -1.92097914E-09
  2 85 118  -1.92097914E-09
  2 85 119  -1.92097914E-09
  2 85 120  -1.92097914E-09
  2 86 96  -3.99860469E-10
  2 86 97  -3.99860469E-10
  2 86 98  -3.99860469E-10
  2 86 99  -3.99860469E-10
  2 86 100  -3.99860469E-10
  2 86 101  -3.99860469E-10
  2 86 102  -3.99860469E-10
  2 86 103  -1.92097914E-09
  2 86 104  -1.92097914E-09
  2 86 105  -1.92097914E-09
  2 86 106  -1.92097914E-09
  2 86 107  -1.92097914E-09
  2 86 108  -1.92097914E-09
  2 86 109  -1.92097914E-09
  2 86 110  -1.92097914E-09
  2 86 111  -1.92097914E-09
  2 86 112  -1.92097914E-09
  2 86 113  -1.92097914E-09
  2 86 114  -1.92097914E-09
  2 86 115  -1.92097914E-09
  2 86 116  -1.92097914E-09
  2 86 117  -1.92097914E-09
  2 86 118  -1.92097914E-09
  2 86 119  -1.92097914E-09
  2 86 120  -1.92097914E-09
  2 87 95  -3.99860469E-10
  2 87 96  -3.99860469E-10
  2 87 97  -3.99860469E-10
  2 87 98  -3.99860469E-10
  2 87 99  -3.99860469E-10
  2 87 105  -1.92097914E-09
  2 87 106  -1.92097914E-09
  2 87 107  -1.92097914E-09
  2 87 108  -1.92097914E-09
  2 87 109  -1.92097914E-09
  2 87 110  -1.92097914E-09
  2 87 111  -1.92097914E-09
  2 87 112  -1.92097914E-09
  2 87 113  -1.92097914E-09
  2 87 114  -1.92097914E-09
  2 87 115  -1.92097914E-09
  2 87 116  -1.92097914E-09
  2 87 117  -1.92097914E-09
  2 87 118  -1.92097914E-09
  2 87 119  -1.92097914E-09
  2 87 120  -1.92097914E-09
  2 88 95  -3.99860469E-10
  2 88 96  -3.99860469E-10
  2 88 97  -3.99860469E-10
  2 88 98  -3.99860469E-10
  2 88 105  -1.92097914E-09
  2 88 106  -1.92097914E-09
  2 88 107  -1.92097914E-09
  2 88 108  -1.92097914E-09
  2 88 109  -1.92097914E-09
  2 88 110  -1.92097914E-09
  2 88 111  -1.92097914E-09
  2 88 112  -1.92097914E-09
  2 88 113  -1.92097914E-09
  2 88 114  -1.92097914E-09
  2 88 115  -1.92097914E-09
  2 88 116  -1.92097914E-09
  2 88 117  -1.92097914E-09
  2 88 118  -1.92097914E-09
  2 88 119  -1.92097914E-09
  2 88 120  -1.92097914E-09
  2 89 95  -3.99860469E-10
  2 89 96  -3.99860469E-10
  2 89 97  -3.99860469E-10
  2 89 98  -3.99860469E-10
  2 89 105  -1.92097914E-09
  2 89 106  -1.92097914E-09
  2 89 107  -1.92097914E-09
  2 89 108  -1.92097914E-09
  2 89 109  -1.92097914E-09
  2 89 110  -1.92097914E-09
  2 89 111  -1.92097914E-09
  2 89 112  -1.92097914E-09
  2 89 113  -1.92097914E-09
  2 89 114  -1.92097914E-09
  2 89 115  -1.92097914E-09
  2 89 116  -1.92097914E-09
  2 89 117  -1.92097914E-09
  2 89 118  -1.92097914E-09
  2 89 119  -1.92097914E-09
  2 89 120  -1.92097914E-09
  2 90 94  -3.99860469E-10
  2 90 95  -3.99860469E-10
  2 90 96  -3.99860469E-10
  2 90 97  -3.99860469E-10
  2 90 98  -3.99860469E-10
  2 90 104  -1.92097914E-09
  2 90 105  -1.92097914E-09
  2 90 106  -1.92097914E-09
  2 90 107  -1.92097914E-09
  2 90 108  -1.92097914E-09
  2 90 109  -1.92097914E-09
  2 90 110  -1.92097914E-09
  2 90 111  -1.92097914E-09
  2 90 112  -1.92097914E-09
  2 90 113  -1.92097914E-09
  2 90 114  -1.92097914E-09
  2 90 115  -1.92097914E-09
  2 90 116  -1.92097914E-09
  2 90 117  -1.92097914E-09
  2 90 118  -1.92097914E-09
  2 90 119  -1.92097914E-09
  2 90 120  -1.92097914E-09
  2 90 124  -1.92097914E-09
  2 90 125  -1.92097914E-09
  2 91 94  -3.99860469E-10
  2 91 95  -3.99860469E-10
  2 91 96  -3.99860469E-10
  2 91 97  -3.99860469E-10
  2 91 99  -1.92097914E-09
  2 91 103  -1.92097914E-09
  2 91 104  -1.92097914E-09
  2 91 105  -1.92097914E-09
  2 91 106  -1.92097914E-09
  2 91 107  -1.92097914E-09
  2 91 108  -1.92097914E-09
  2 91 109  -1.92097914E-09
  2 91 110  -1.92097914E-09
  2 91 111  -1.92097914E-09
  2 91 112  -1.92097914E-09
  2 91 113  -1.92097914E-09
  2 91 114  -1.92097914E-09
  2 91 115  -1.92097914E-09
  2 91 116  -1.92097914E-09
  2 91 117  -1.92097914E-09
  2 91 118  -1.92097914E-09
  2 91 119  -1.92097914E-09
  2 91 120  -1.92097914E-09
  2 91 121  -1.92097914E-09
  2 91 122  -1.92097914E-09
  2 91 123  -1.92097914E-09
  2 91 124  -1.92097914E-09
  2 91 125  -1.92097914E-09
  2 91 126  -1.92097914E-09
  2 91 127  -1.92097914E-09
  2 92 92  -3.99860469E-10
  2 92 93  -3.99860469E-10
  2 92 94  -3.99860469E-10
  2 92 95  -3.99860469E-10
  2 92 96  -3.99860469E-10
  2 92 97  -1.92097914E-09
  2 92 98  -1.92097914E-09
  2 92 99  -1.92097914E-09
  2 92 100  -1.92097914E-09
  2 92 101  -1.92097914E-09
  2 92 102  -1.92097914E-09
  2 92 103  -1.92097914E-09
  2 92 104  -1.92097914E-09
  2 92 105  -1.92097914E-09
  2 92 106  -1.92097914E-09
  2 92 107  -1.92097914E-09
  2 92 108  -1.92097914E-09
  2 92 109  -1.92097914E-09
  2 92 110  -1.92097914E-09
  2 92 111  -1.92097914E-09
  2 92 112  -1.92097914E-09
  2 92 113  -1.92097914E-09
  2 92 114  -1.92097914E-09
  2 92 115  -1.92097914E-09
  2 92 116  -1.92097914E-09
  2 92 117  -1.92097914E-09
  2 92 118  -1.92097914E-09
  2 92 119  -1.92097914E-09
  2 92 120  -1.92097914E-09
  2 92 121  -1.92097914E-09
  2 92 122  -1.92097914E-09
  2 92 123  -1.92097914E-09
  2 92 124  -1.92097914E-09
  2 92 125  -1.92097914E-09
  2 92 126  -1.92097914E-09
  2 92 127  -1.92097914E-09
  2 93 92  -3.99860469E-10
  2 93 93  -3.99860469E-10
  2 93 94  -3.99860469E-10
  2 93 95  -3.99860469E-10
  2 93 96  -1.92097914E-09
  2 93 97  -1.92097914E-09
  2 93 98  -1.92097914E-09
  2 93 99  -1.92097914E-09
  2 93 100  -1.92097914E-09
  2 93 101  -1.92097914E-09
  2 93 102  -1.92097914E-09
  2 93 103  -1.92097914E-09
  2 93 104  -1.92097914E-09
  2 93 105  -1.92097914E-09
  2 93 106  -1.92097914E-09
  2 93 107  -1.92097914E-09
  2 93 108  -1.92097914E-09
  2 93 109  -1.92097914E-09
  2 93 110  -1.92097914E-09
  2 93 111  -1.92097914E-09
  2 93 112  -1.92097914E-09
  2 93 113  -1.92097914E-09
  2 93 114  -1.92097914E-09