BEGIN options
  SAVE_FLOWS
END options

BEGIN dimensions
  MAXBOUND  17
END dimensions

BEGIN period  1
  3 163 109     100.00000000
  3 164 106     100.00000000
  3 164 107     100.00000000
  3 164 108     100.00000000
  3 165 99     100.00000000
  3 165 100     100.00000000
  3 165 105     100.00000000
  3 166 95     100.00000000
  3 166 96     100.00000000
  3 166 97     100.00000000
  3 166 98     100.00000000
  3 166 101     100.00000000
  3 166 105     100.00000000
  3 167 101     100.00000000
  3 167 102     100.00000000
  3 167 103     100.00000000
  3 167 104     100.00000000
END period  1

