BEGIN options
  SAVE_FLOWS
END options

BEGIN dimensions
  MAXBOUND  127
END dimensions

BEGIN period  1
  4 140 57     123.41825960       0.01000000     121.41825960
  4 141 57     122.71005076       0.01000000     120.71005076
  4 141 58     121.74752443       0.01000000     119.74752443
  4 141 59     117.87920536       0.01000000     115.87920536
  4 140 59     116.27432797       0.01000000     114.27432797
  5 141 60     113.11900320       0.01000000     111.11900320
  4 142 60     112.18817063       0.01000000     110.18817063
  5 142 61     111.36998015       0.01000000     109.36998015
  4 142 62     108.05137179       0.01000000     106.05137179
  5 142 63     106.13315417       0.01000000     104.13315417
  4 142 64     104.21379301       0.01000000     102.21379301
  4 141 64     102.86840172       0.01000000     100.86840172
  4 142 65     102.45470562       0.01000000     100.45470562
  5 141 65     101.50665454       0.01000000      99.50665454
  5 141 66      99.00000000       0.01000000      97.00000000
  5 141 67      97.45568641       0.01000000      95.45568641
  4 141 68      93.58694318       0.01000000      91.58694318
  5 140 68      92.77902902       0.01000000      90.77902902
  5 140 69      91.59138696       0.01000000      89.59138696
  4 140 70      90.43347899       0.01000000      88.43347899
  5 139 70      88.02630569       0.01000000      86.02630569
  4 139 71      86.09443223       0.01000000      84.09443223
  5 138 71      83.57644736       0.01000000      81.57644736
  4 138 72      82.17649725       0.01000000      80.17649725
  5 137 72      81.05493417       0.01000000      79.05493417
  5 137 73      78.26361761       0.01000000      76.26361761
  5 137 74      76.77673606       0.01000000      74.77673606
  4 138 74      75.96858954       0.01000000      73.96858954
  5 138 75      75.11626116       0.01000000      73.11626116
  5 138 76      73.58997544       0.01000000      71.58997544
  5 138 77      71.65519183       0.01000000      69.65519183
  5 137 77      70.73511820       0.01000000      68.73511820
  5 136 77      69.00000000       0.01000000      67.00000000
  4 135 77      69.00000000       0.01000000      67.00000000
  5 135 78      68.38293246       0.01000000      66.38293246
  4 134 78      67.03378935       0.01000000      65.03378935
  4 135 79      64.00000000       0.01000000      62.00000000
  4 135 80      64.00000000       0.01000000      62.00000000
  4 134 80      63.08315186       0.01000000      61.08315186
  4 133 80      58.15008311       0.01000000      56.15008311
  4 132 80      56.80289813       0.01000000      54.80289813
  4 131 80      55.96907926       0.01000000      53.96907926
  4 131 81      55.46063924       0.01000000      53.46063924
  4 130 81      53.21400763       0.01000000      51.21400763
  4 130 82      52.09525797       0.01000000      50.09525797
  4 129 82      51.16276004       0.01000000      49.16276004
  4 128 82      50.31001602       0.01000000      48.31001602
  4 128 83      48.56746085       0.01000000      46.56746085
  4 127 83      47.78424044       0.01000000      45.78424044
  4 127 84      47.25587348       0.01000000      45.25587348
  4 126 84      46.53470408       0.01000000      44.53470408
  4 125 84      45.48235846       0.01000000      43.48235846
  4 124 84      42.86642792       0.01000000      40.86642792
  4 124 85      41.61555738       0.01000000      39.61555738
  4 123 85      38.32433262       0.01000000      36.32433262
  4 122 86      36.31851675       0.01000000      34.31851675
  4 121 86      35.60883987       0.01000000      33.60883987
  4 121 87      33.56841323       0.01000000      31.56841323
  2 120 87      33.06499740       0.01000000      31.06499740
  2 120 88      32.56157116       0.01000000      30.56157116
  2 120 89      31.76369358       0.01000000      29.76369358
  2 120 90      31.02549183       0.01000000      29.02549183
  2 120 91      30.37201993       0.01000000      28.37201993
  2 119 91      29.90648057       0.01000000      27.90648057
  2 119 92      28.68390398       0.01000000      26.68390398
  2 118 92      28.25608016       0.01000000      26.25608016
  2 118 93      27.74752634       0.01000000      25.74752634
  2 117 93      27.33490575       0.01000000      25.33490575
  2 117 94      26.95398213       0.01000000      24.95398213
  2 117 95      26.25802972       0.01000000      24.25802972
  2 117 96      25.60646716       0.01000000      23.60646716
  2 117 97      24.96480640       0.01000000      22.96480640
  2 117 98      23.43126127       0.01000000      21.43126127
  2 117 99      22.44750090       0.01000000      20.44750090
  2 116 99      21.87716507       0.01000000      19.87716507
  2 116 100      21.48493281       0.01000000      19.48493281
  2 117 100      20.88858228       0.01000000      18.88858228
  2 117 101      19.91448912       0.01000000      17.91448912
  2 117 102      18.87115370       0.01000000      16.87115370
  2 118 102      18.23692877       0.01000000      16.23692877
  2 118 103      17.33613159       0.01000000      15.33613159
  2 118 104      16.38925002       0.01000000      14.38925002
  2 119 104      15.78758384       0.01000000      13.78758384
  2 119 105      14.81520770       0.01000000      12.81520770
  2 119 106      12.36998390       0.01000000      10.36998390
  2 119 107      11.22970647       0.01000000       9.22970647
  2 118 107      10.09900673       0.01000000       8.09900673
  2 117 107       8.90048168       0.01000000       6.90048168
  2 117 108       8.50351979       0.01000000       6.50351979
  2 117 109       8.18513168       0.01000000       6.18513168
  2 116 109       7.83838441       0.01000000       5.83838441
  2 116 110       7.46858177       0.01000000       5.46858177
  2 115 110       7.19879803       0.01000000       5.19879803
  2 115 111       6.72462855       0.01000000       4.72462855
  2 115 112       6.22170721       0.01000000       4.22170721
  2 115 113       5.91822839       0.01000000       3.91822839
  2 116 113       5.62212961       0.01000000       3.62212961
  2 116 114       5.12467649       0.01000000       3.12467649
  2 116 115       4.62175385       0.01000000       2.62175385
  2 116 116       4.08746905       0.01000000       2.08746905
  2 116 117       3.75299462       0.01000000       1.75299462
  2 115 117       3.44992188       0.01000000       1.44992188
  2 115 118       3.04921797       0.01000000       1.04921797
  2 114 118       2.67290868       0.01000000       0.67290868
  2 114 119       2.35087071       0.01000000       0.35087071
  2 113 119       1.95928087       0.01000000      -0.04071913
  2 113 120       1.63747028       0.01000000      -0.36252972
  2 112 120       1.28556080       0.01000000      -0.71443920
  2 111 120       0.92765656       0.01000000      -1.07234344
  2 111 121       0.60214251       0.01000000      -1.39785749
  2 110 121       0.21849693       0.01000000      -1.78150307
  2 110 122      -0.10905774       0.01000000      -2.10905774
  2 109 122      -0.49515522       0.01000000      -2.49515522
  2 109 123      -0.96831317       0.01000000      -2.96831317
  2 108 123      -0.90027512       0.01000000      -2.90027512
  2 108 124      -0.79541313       0.01000000      -2.79541313
  2 109 124      -0.71521252       0.01000000      -2.71521252
  2 109 125      -0.66740540       0.01000000      -2.66740540
  2 110 125      -0.58604893       0.01000000      -2.58604893
  2 111 125      -0.49656521       0.01000000      -2.49656521
  2 112 125      -0.40800451       0.01000000      -2.40800451
  2 113 125      -0.31927473       0.01000000      -2.31927473
  2 114 125      -0.23006815       0.01000000      -2.23006815
  2 115 125      -0.16033673       0.01000000      -2.16033673
  2 115 126      -0.08442607       0.01000000      -2.08442607
  2 115 127       0.01081424       0.01000000      -1.98918576
  2 115 128       0.07754117       0.01000000      -1.92245883
END period  1

