BEGIN options
  SAVE_FLOWS
END options

BEGIN dimensions
  MAXBOUND  127
END dimensions

BEGIN period  1
  4 140 57     123.41825960       0.00300000     121.91825960
  4 141 57     122.71005076       0.00300000     121.21005076
  2 141 58     121.74752443       0.00300000     120.24752443
  2 141 59     117.87920536       0.00300000     116.37920536
  4 140 59     116.27432797       0.00300000     114.77432797
  2 141 60     113.11900320       0.00300000     111.61900320
  4 142 60     112.18817063       0.00300000     110.68817063
  2 142 61     111.36998015       0.00300000     109.86998015
  2 142 62     108.05137179       0.00300000     106.55137179
  2 142 63     106.13315417       0.00300000     104.63315417
  2 142 64     104.21379301       0.00300000     102.71379301
  4 141 64     102.86840172       0.00300000     101.36840172
  2 142 65     102.45470562       0.00300000     100.95470562
  5 141 65     101.50665454       0.00300000     100.00665454
  2 141 66      99.00000000       0.00300000      97.50000000
  2 141 67      97.45568641       0.00300000      95.95568641
  2 141 68      93.58694318       0.00300000      92.08694318
  5 140 68      92.77902902       0.00300000      91.27902902
  2 140 69      91.59138696       0.00300000      90.09138696
  4 140 70      90.43347899       0.00300000      88.93347899
  5 139 70      88.02630569       0.00300000      86.52630569
  2 139 71      86.09443223       0.00300000      84.59443223
  5 138 71      83.57644736       0.00300000      82.07644736
  2 138 72      82.17649725       0.00300000      80.67649725
  5 137 72      81.05493417       0.00300000      79.55493417
  2 137 73      78.26361761       0.00300000      76.76361761
  2 137 74      76.77673606       0.00300000      75.27673606
  2 138 74      75.96858954       0.00300000      74.46858954
  2 138 75      75.11626116       0.00300000      73.61626116
  2 138 76      73.58997544       0.00300000      72.08997544
  2 138 77      71.65519183       0.00300000      70.15519183
  2 137 77      70.73511820       0.00300000      69.23511820
  2 136 77      69.00000000       0.00300000      67.50000000
  2 135 77      69.00000000       0.00300000      67.50000000
  2 135 78      68.38293246       0.00300000      66.88293246
  2 134 78      67.03378935       0.00300000      65.53378935
  2 135 79      64.00000000       0.00300000      62.50000000
  4 135 80      64.00000000       0.00300000      62.50000000
  2 134 80      63.08315186       0.00300000      61.58315186
  2 133 80      58.15008311       0.00300000      56.65008311
  2 132 80      56.80289813       0.00300000      55.30289813
  2 131 80      55.96907926       0.00300000      54.46907926
  2 131 81      55.46063924       0.00300000      53.96063924
  2 130 81      53.21400763       0.00300000      51.71400763
  2 130 82      52.09525797       0.00300000      50.59525797
  2 129 82      51.16276004       0.00300000      49.66276004
  2 128 82      50.31001602       0.00300000      48.81001602
  2 128 83      48.56746085       0.00300000      47.06746085
  2 127 83      47.78424044       0.00300000      46.28424044
  4 127 84      47.25587348       0.00300000      45.75587348
  2 126 84      46.53470408       0.00300000      45.03470408
  2 125 84      45.48235846       0.00300000      43.98235846
  2 124 84      42.86642792       0.00300000      41.36642792
  2 124 85      41.61555738       0.00300000      40.11555738
  2 123 85      38.32433262       0.00300000      36.82433262
  2 122 86      36.31851675       0.00300000      34.81851675
  2 121 86      35.60883987       0.00300000      34.10883987
  2 121 87      33.56841323       0.00300000      32.06841323
  2 120 87      33.06499740       0.00300000      31.56499740
  2 120 88      32.56157116       0.00300000      31.06157116
  2 120 89      31.76369358       0.00300000      30.26369358
  2 120 90      31.02549183       0.00300000      29.52549183
  2 120 91      30.37201993       0.00300000      28.87201993
  2 119 91      29.90648057       0.00300000      28.40648057
  2 119 92      28.68390398       0.00300000      27.18390398
  2 118 92      28.25608016       0.00300000      26.75608016
  2 118 93      27.74752634       0.00300000      26.24752634
  2 117 93      27.33490575       0.00300000      25.83490575
  2 117 94      26.95398213       0.00300000      25.45398213
  2 117 95      26.25802972       0.00300000      24.75802972
  2 117 96      25.60646716       0.00300000      24.10646716
  2 117 97      24.96480640       0.00300000      23.46480640
  2 117 98      23.43126127       0.00300000      21.93126127
  2 117 99      22.44750090       0.00300000      20.94750090
  2 116 99      21.87716507       0.00300000      20.37716507
  2 116 100      21.48493281       0.00300000      19.98493281
  2 117 100      20.88858228       0.00300000      19.38858228
  2 117 101      19.91448912       0.00300000      18.41448912
  2 117 102      18.87115370       0.00300000      17.37115370
  2 118 102      18.23692877       0.00300000      16.73692877
  2 118 103      17.33613159       0.00300000      15.83613159
  2 118 104      16.38925002       0.00300000      14.88925002
  2 119 104      15.78758384       0.00300000      14.28758384
  2 119 105      14.81520770       0.00300000      13.31520770
  2 119 106      12.36998390       0.00300000      10.86998390
  2 119 107      11.22970647       0.00300000       9.72970647
  2 118 107      10.09900673       0.00300000       8.59900673
  2 117 107       8.90048168       0.00300000       7.40048168
  2 117 108       8.50351979       0.00300000       7.00351979
  2 117 109       8.18513168       0.00300000       6.68513168
  2 116 109       7.83838441       0.00300000       6.33838441
  2 116 110       7.46858177       0.00300000       5.96858177
  2 115 110       7.19879803       0.00300000       5.69879803
  2 115 111       6.72462855       0.00300000       5.22462855
  2 115 112       6.22170721       0.00300000       4.72170721
  2 115 113       5.91822839       0.00300000       4.41822839
  2 116 113       5.62212961       0.00300000       4.12212961
  2 116 114       5.12467649       0.00300000       3.62467649
  2 116 115       4.62175385       0.00300000       3.12175385
  2 116 116       4.08746905       0.00300000       2.58746905
  2 116 117       3.75299462       0.00300000       2.25299462
  2 115 117       3.44992188       0.00300000       1.94992188
  2 115 118       3.04921797       0.00300000       1.54921797
  2 114 118       2.67290868       0.00300000       1.17290868
  2 114 119       2.35087071       0.00300000       0.85087071
  2 113 119       1.95928087       0.00300000       0.45928087
  2 113 120       1.63747028       0.00300000       0.13747028
  2 112 120       1.28556080       0.00300000      -0.21443920
  2 111 120       0.92765656       0.00300000      -0.57234344
  2 111 121       0.60214251       0.00300000      -0.89785749
  2 110 121       0.21849693       0.00300000      -1.28150307
  2 110 122      -0.10905774       0.00300000      -1.60905774
  2 109 122      -0.49515522       0.00300000      -1.99515522
  2 109 123      -0.96831317       0.00300000      -2.46831317
  2 108 123      -0.90027512       0.00300000      -2.40027512
  2 108 124      -0.79541313       0.00300000      -2.29541313
  2 109 124      -0.71521252       0.00300000      -2.21521252
  2 109 125      -0.66740540       0.00300000      -2.16740540
  2 110 125      -0.58604893       0.00300000      -2.08604893
  2 111 125      -0.49656521       0.00300000      -1.99656521
  2 112 125      -0.40800451       0.00300000      -1.90800451
  2 113 125      -0.31927473       0.00300000      -1.81927473
  2 114 125      -0.23006815       0.00300000      -1.73006815
  2 115 125      -0.16033673       0.00300000      -1.66033673
  2 115 126      -0.08442607       0.00300000      -1.58442607
  2 115 127       0.01081424       0.00300000      -1.48918576
  2 115 128       0.07754117       0.00300000      -1.42245883
END period  1

