BEGIN options
  SAVE_FLOWS
END options

BEGIN dimensions
  MAXBOUND  108
END dimensions

BEGIN period  1
  3 140 57     123.41825960       0.01000000     121.41825960
  3 141 57     122.71005076       0.01000000     120.71005076
  3 141 58     121.74752443       0.01000000     119.74752443
  3 141 59     117.87920536       0.01000000     115.87920536
  3 140 59     116.27432797       0.01000000     114.27432797
  3 142 60     112.18817063       0.01000000     110.18817063
  3 142 62     108.20947649       0.01000000     106.20947649
  3 142 64     105.01149418       0.01000000     103.01149418
  3 141 64     103.83550215       0.01000000     101.83550215
  3 142 65     103.31838202       0.01000000     101.31838202
  3 141 68      93.58694318       0.01000000      91.58694318
  3 140 70      90.43347899       0.01000000      88.43347899
  3 139 71      86.09443223       0.01000000      84.09443223
  3 138 72      82.17649725       0.01000000      80.17649725
  3 138 74      76.83470681       0.01000000      74.83470681
  3 135 77      69.00000000       0.01000000      67.00000000
  3 134 78      67.03378935       0.01000000      65.03378935
  3 135 79      64.00000000       0.01000000      62.00000000
  3 135 80      64.00000000       0.01000000      62.00000000
  3 134 80      63.08315186       0.01000000      61.08315186
  3 133 80      58.15008311       0.01000000      56.15008311
  3 132 80      56.80289813       0.01000000      54.80289813
  3 131 80      55.96907926       0.01000000      53.96907926
  3 131 81      55.46063924       0.01000000      53.46063924
  3 130 81      53.21400763       0.01000000      51.21400763
  3 130 82      52.09525797       0.01000000      50.09525797
  3 129 82      51.16276004       0.01000000      49.16276004
  3 128 82      50.31001602       0.01000000      48.31001602
  3 128 83      48.56746085       0.01000000      46.56746085
  3 127 83      47.78424044       0.01000000      45.78424044
  3 127 84      47.25587348       0.01000000      45.25587348
  3 126 84      46.53470408       0.01000000      44.53470408
  3 125 84      45.48235846       0.01000000      43.48235846
  3 124 84      42.86642792       0.01000000      40.86642792
  3 124 85      41.61555738       0.01000000      39.61555738
  3 123 85      38.32433262       0.01000000      36.32433262
  3 122 86      36.31851675       0.01000000      34.31851675
  3 121 86      35.60883987       0.01000000      33.60883987
  3 121 87      33.56841323       0.01000000      31.56841323
  1 120 87      33.06499740       0.01000000      31.06499740
  1 120 88      32.56157116       0.01000000      30.56157116
  1 120 89      31.76369358       0.01000000      29.76369358
  1 120 90      31.02549183       0.01000000      29.02549183
  1 120 91      30.37201993       0.01000000      28.37201993
  1 119 91      29.90648057       0.01000000      27.90648057
  1 119 92      28.68390398       0.01000000      26.68390398
  1 118 92      28.25608016       0.01000000      26.25608016
  1 118 93      27.74752634       0.01000000      25.74752634
  1 117 93      27.33490575       0.01000000      25.33490575
  1 117 94      26.95398213       0.01000000      24.95398213
  1 117 95      26.25802972       0.01000000      24.25802972
  1 117 96      25.60646716       0.01000000      23.60646716
  1 117 97      24.96480640       0.01000000      22.96480640
  1 117 98      23.43126127       0.01000000      21.43126127
  1 117 99      22.44750090       0.01000000      20.44750090
  1 116 99      21.87716507       0.01000000      19.87716507
  1 116 100      21.48493281       0.01000000      19.48493281
  1 117 100      20.88858228       0.01000000      18.88858228
  1 117 101      19.91448912       0.01000000      17.91448912
  1 117 102      18.87115370       0.01000000      16.87115370
  1 118 102      18.23692877       0.01000000      16.23692877
  1 118 103      17.33613159       0.01000000      15.33613159
  1 118 104      16.38925002       0.01000000      14.38925002
  1 119 104      15.78758384       0.01000000      13.78758384
  1 119 105      14.81520770       0.01000000      12.81520770
  1 119 106      12.36998390       0.01000000      10.36998390
  1 119 107      11.22970647       0.01000000       9.22970647
  1 118 107      10.09900673       0.01000000       8.09900673
  1 117 107       8.90048168       0.01000000       6.90048168
  1 117 108       8.50351979       0.01000000       6.50351979
  1 117 109       8.18513168       0.01000000       6.18513168
  1 116 109       7.83838441       0.01000000       5.83838441
  1 116 110       7.46858177       0.01000000       5.46858177
  1 115 110       7.19879803       0.01000000       5.19879803
  1 115 111       6.72462855       0.01000000       4.72462855
  1 115 112       6.22170721       0.01000000       4.22170721
  1 115 113       5.91822839       0.01000000       3.91822839
  1 116 113       5.62212961       0.01000000       3.62212961
  1 116 114       5.12467649       0.01000000       3.12467649
  1 116 115       4.62175385       0.01000000       2.62175385
  1 116 116       4.08746905       0.01000000       2.08746905
  1 116 117       3.75299462       0.01000000       1.75299462
  1 115 117       3.44992188       0.01000000       1.44992188
  1 115 118       3.04921797       0.01000000       1.04921797
  1 114 118       2.67290868       0.01000000       0.67290868
  1 114 119       2.35087071       0.01000000       0.35087071
  1 113 119       1.95928087       0.01000000      -0.04071913
  1 113 120       1.63747028       0.01000000      -0.36252972
  1 112 120       1.28556080       0.01000000      -0.71443920
  1 111 120       0.92765656       0.01000000      -1.07234344
  1 111 121       0.60214251       0.01000000      -1.39785749
  1 110 121       0.21849693       0.01000000      -1.78150307
  1 110 122      -0.10905774       0.01000000      -2.10905774
  1 109 122      -0.49515522       0.01000000      -2.49515522
  1 109 123      -0.96831317       0.01000000      -2.96831317
  1 108 123      -0.90027512       0.01000000      -2.90027512
  1 108 124      -0.79541313       0.01000000      -2.79541313
  1 109 124      -0.71521252       0.01000000      -2.71521252
  1 109 125      -0.66740540       0.01000000      -2.66740540
  1 110 125      -0.58604893       0.01000000      -2.58604893
  1 111 125      -0.49656521       0.01000000      -2.49656521
  1 112 125      -0.40800451       0.01000000      -2.40800451
  1 113 125      -0.31927473       0.01000000      -2.31927473
  1 114 125      -0.23006815       0.01000000      -2.23006815
  1 115 125      -0.16033673       0.01000000      -2.16033673
  1 115 126      -0.08442607       0.01000000      -2.08442607
  1 115 127       0.01081424       0.01000000      -1.98918576
  1 115 128       0.07754117       0.01000000      -1.92245883
END period  1

