BEGIN options
  SAVE_FLOWS
END options

BEGIN dimensions
  MAXBOUND  117
END dimensions

BEGIN period  1
  1 132 72     123.53543726
  1 132 73     122.58344944
  1 133 73     121.61064576
  2 133 74     120.99599591
  2 132 74     118.11043957
  1 132 75     116.81428563
  1 133 75     115.81928218
  1 133 76     112.71688204
  1 133 77     108.28089692
  2 134 77     107.49202398
  2 134 78     106.89602926
  1 133 78     106.14623741
  1 133 79     102.83162224
  1 133 80     100.70721696
  1 133 81      99.00000000
  1 132 81      99.00000000
  1 132 82      97.86733108
  1 132 83      93.17729348
  1 132 84      91.62870018
  1 131 84      90.87228665
  1 131 85      87.72614662
  1 130 85      86.41531713
  1 130 86      83.26311775
  1 130 87      82.35022536
  1 129 87      81.62668093
  1 129 88      80.47028484
  1 129 89      78.58714272
  1 128 89      77.94966149
  1 130 90      76.46240387
  1 130 91      75.85845257
  1 130 92      75.22362245
  1 129 92      72.74659610
  1 128 92      69.00000000
  1 127 92      69.00000000
  1 127 93      69.00000000
  1 126 93      67.62423473
  1 126 94      64.00000000
  1 126 95      64.00000000
  1 125 95      62.93896657
  1 124 95      60.44883542
  1 124 96      58.64805485
  1 123 95      57.22904848
  1 122 95      56.10238039
  1 122 96      53.53350195
  1 121 96      52.68582620
  1 121 97      51.78675238
  2 120 97      50.86033820
  2 120 98      50.35473800
  2 119 98      48.27163370
  1 118 98      47.54267900
  1 118 99      46.94157346
  1 117 99      45.82285807
  2 117 100      45.20762734
  2 116 100      44.98458843
  2 116 99      43.36347228
  1 115 99      42.33967455
  1 115 100      41.37416438
  1 114 100      38.25392559
  1 113 101      36.60546157
  1 113 102      35.51180479
  1 112 102      33.65639184
  1 112 103      33.11283022
  1 111 103      32.66236853
  1 111 104      32.04132591
  1 111 105      31.29449558
  1 111 106      30.45918430
  1 111 107      29.91126200
  1 110 107      28.63501213
  1 110 108      28.11694888
  1 109 108      27.69127655
  1 109 109      27.12337191
  1 108 109      26.74549362
  1 108 110      26.32093148
  1 108 111      25.64956425
  1 108 112      24.99049635
  1 108 113      23.43130123
  1 108 114      22.29185477
  1 108 115      21.12776908
  1 108 116      19.95498335
  1 109 116      19.34403010
  1 109 117      18.67698406
  1 109 118      17.61015521
  1 110 118      16.90963517
  1 110 119      16.04036567
  1 110 120      14.92129130
  1 111 120      14.29713131
  1 111 121      12.36436039
  1 111 122      11.64386455
  1 110 122      10.80928507
  1 109 122       8.79388971
  1 109 123       8.51115556
  1 108 123       8.22460085
  1 108 124       7.80037093
  1 107 124       7.47937161
  1 107 125       7.10701751
  1 107 126       6.60660312
  1 107 127       6.13399412
  1 107 128       5.61360221
  1 107 129       5.09486917
  1 107 130       4.73552442
  1 108 130       4.49689647
  1 108 131       4.32173126
  1 107 131       4.05735398
  1 107 132       3.58706909
  1 106 132       3.31331924
  1 106 133       2.99625773
  1 105 133       2.63800047
  1 105 134       2.33490669
  1 104 134       1.96407790
  1 104 135       1.65799997
  1 103 135       1.29478091
  1 103 136       0.98712281
  1 102 136       0.62390375
  1 102 137       0.31324023
  1 101 137      -0.05126199
  1 101 138      -0.35842201
  1 107 142       0.00301694
END period  1

