BEGIN options
  SAVE_FLOWS
END options

BEGIN dimensions
  MAXBOUND  125
END dimensions

BEGIN period  1
  4 140 57     124.48642296       0.00300000     122.98642296
  4 140 58     123.93324442       0.00300000     122.43324442
  2 141 58     122.88379036       0.00300000     121.38379036
  2 141 59     119.21445180       0.00300000     117.71445180
  4 140 59     118.21629308       0.00300000     116.71629308
  4 140 60     117.94791297       0.00300000     116.44791297
  2 141 60     117.19189907       0.00300000     115.69189907
  4 142 60     116.33229732       0.00300000     114.83229732
  2 142 61     113.77484728       0.00300000     112.27484728
  2 142 62     109.05321104       0.00300000     107.55321104
  2 142 63     107.20627912       0.00300000     105.70627912
  2 142 64     103.23693450       0.00300000     101.73693450
  2 142 65     102.12946141       0.00300000     100.62946141
  2 141 66     100.00000000       0.00300000      98.50000000
  2 141 67      98.81146761       0.00300000      97.31146761
  2 141 68      94.25664037       0.00300000      92.75664037
  2 140 69      92.80611291       0.00300000      91.30611291
  4 141 69      92.05364269       0.00300000      90.55364269
  4 140 70      91.31961330       0.00300000      89.81961330
  2 139 71      87.08083079       0.00300000      85.58083079
  2 138 72      83.76754469       0.00300000      82.26754469
  2 138 73      82.80472141       0.00300000      81.30472141
  2 137 73      82.07769943       0.00300000      80.57769943
  2 137 74      79.36790876       0.00300000      77.86790876
  2 138 74      78.67537273       0.00300000      77.17537273
  2 138 75      77.91537765       0.00300000      76.41537765
  2 138 76      76.59070744       0.00300000      75.09070744
  2 138 77      73.68718777       0.00300000      72.18718777
  2 137 77      69.00000000       0.00300000      67.50000000
  2 136 77      69.00000000       0.00300000      67.50000000
  2 135 77      69.00000000       0.00300000      67.50000000
  2 135 78      67.91088103       0.00300000      66.41088103
  2 134 78      66.76062922       0.00300000      65.26062922
  2 135 79      65.00000000       0.00300000      63.50000000
  4 135 80      65.00000000       0.00300000      63.50000000
  2 134 80      64.01614282       0.00300000      62.51614282
  2 133 80      59.21206058       0.00300000      57.71206058
  4 133 81      58.33625404       0.00300000      56.83625404
  2 132 81      58.17098833       0.00300000      56.67098833
  2 132 80      57.65671912       0.00300000      56.15671912
  2 131 80      56.99736912       0.00300000      55.49736912
  2 131 81      56.47237282       0.00300000      54.97237282
  2 130 81      54.17744943       0.00300000      52.67744943
  2 130 82      52.84062223       0.00300000      51.34062223
  2 129 82      51.60960871       0.00300000      50.10960871
  2 128 82      50.74944893       0.00300000      49.24944893
  2 128 83      48.45264607       0.00300000      46.95264607
  2 127 83      47.70284383       0.00300000      46.20284383
  4 127 84      47.18634791       0.00300000      45.68634791
  2 126 84      46.32968018       0.00300000      44.82968018
  2 125 84      45.45573343       0.00300000      43.95573343
  2 125 85      44.95576474       0.00300000      43.45576474
  2 124 84      43.07950941       0.00300000      41.57950941
  2 124 85      41.80343533       0.00300000      40.30343533
  2 123 85      38.33073397       0.00300000      36.83073397
  2 122 86      36.42221761       0.00300000      34.92221761
  2 121 86      35.69172918       0.00300000      34.19172918
  2 121 87      33.51801316       0.00300000      32.01801316
  2 121 88      33.02209177       0.00300000      31.52209177
  2 120 88      32.59269172       0.00300000      31.09269172
  2 120 89      31.82305222       0.00300000      30.32305222
  2 120 90      31.10914800       0.00300000      29.60914800
  2 120 91      30.40414637       0.00300000      28.90414637
  2 119 91      29.96432744       0.00300000      28.46432744
  2 119 92      28.68666860       0.00300000      27.18666860
  2 118 92      28.34240785       0.00300000      26.84240785
  2 118 93      27.98154689       0.00300000      26.48154689
  4 118 94      27.59831826       0.00300000      26.09831826
  2 117 94      27.30527168       0.00300000      25.80527168
  2 117 95      26.80043305       0.00300000      25.30043305
  2 117 96      26.27980249       0.00300000      24.77980249
  2 117 97      25.76848306       0.00300000      24.26848306
  2 117 98      24.43129760       0.00300000      22.93129760
  2 117 99      23.29188496       0.00300000      21.79188496
  2 117 100      22.12756269       0.00300000      20.62756269
  2 117 101      20.92266015       0.00300000      19.42266015
  2 117 102      19.93591108       0.00300000      18.43591108
  2 118 102      19.30061775       0.00300000      17.80061775
  2 118 103      18.34049125       0.00300000      16.84049125
  2 118 104      17.48553009       0.00300000      15.98553009
  2 119 104      16.88554117       0.00300000      15.38554117
  2 119 105      15.81615370       0.00300000      14.31615370
  2 119 106      13.36487644       0.00300000      11.86487644
  2 119 107      12.10901940       0.00300000      10.60901940
  2 118 107      10.85381248       0.00300000       9.35381248
  2 117 107       9.93685826       0.00300000       8.43685826
  2 117 108       9.45077841       0.00300000       7.95077841
  2 117 109       8.91023301       0.00300000       7.41023301
  2 116 109       8.43464010       0.00300000       6.93464010
  2 116 110       7.92134341       0.00300000       6.42134341
  2 115 110       7.53010670       0.00300000       6.03010670
  2 115 111       6.33297040       0.00300000       4.83297040
  2 115 112       5.79528646       0.00300000       4.29528646
  2 115 113       5.48080816       0.00300000       3.98080816
  2 116 113       5.15953610       0.00300000       3.65953610
  2 116 114       4.61339381       0.00300000       3.11339381
  2 116 115       4.07331385       0.00300000       2.57331385
  2 116 116       3.06684115       0.00300000       1.56684115
  2 116 117       2.87755999       0.00300000       1.37755999
  2 115 117       2.73959922       0.00300000       1.23959922
  2 115 118       2.55533534       0.00300000       1.05533534
  2 114 118       2.37477172       0.00300000       0.87477172
  2 114 119       2.22261297       0.00300000       0.72261297
  2 113 119       2.03602373       0.00300000       0.53602373
  2 113 120       1.88276474       0.00300000       0.38276474
  2 112 120       1.69997224       0.00300000       0.19997224
  2 112 121       1.54514117       0.00300000       0.04514117
  2 111 121       1.37758124       0.00300000      -0.12241876
  2 110 121       1.20751760       0.00300000      -0.29248240
  2 110 122       1.05165882       0.00300000      -0.44834118
  2 109 122       0.86822980       0.00300000      -0.63177020
  2 109 123       0.58100944       0.00300000      -0.91899056
  2 108 123       0.55039861       0.00300000      -0.94960139
  2 108 124       0.50727361       0.00300000      -0.99272639
  2 109 124       0.47223538       0.00300000      -1.02776462
  2 109 125       0.45059130       0.00300000      -1.04940870
  2 110 125       0.41206679       0.00300000      -1.08793321
  2 111 125       0.37173185       0.00300000      -1.12826815
  2 112 125       0.33187706       0.00300000      -1.16812294
  2 113 125       0.29196490       0.00300000      -1.20803510
  2 114 125       0.25187061       0.00300000      -1.24812939
  2 115 125       0.22070073       0.00300000      -1.27929927
  2 115 126       0.18650362       0.00300000      -1.31349638
  2 115 127       0.14344435       0.00300000      -1.35655565
  2 115 128       0.11176412       0.00300000      -1.38823588
END period  1

