BEGIN options
  SAVE_FLOWS
END options

BEGIN dimensions
  MAXBOUND  115
END dimensions

BEGIN period  1
  1 140 57     123.41825960
  2 141 57     122.71005076
  1 141 58     121.74752443
  1 141 59     117.87920536
  2 140 59     116.27432797
  1 141 60     113.11900320
  2 142 60     112.18817063
  3 142 61     111.36998015
  1 142 62     108.20947649
  1 142 63     106.61096181
  1 142 64     105.01149418
  1 141 64     103.83550215
  1 142 65     103.31838202
  1 141 65     102.13331818
  1 141 66      99.00000000
  1 141 67      97.45568641
  1 141 68      93.58694318
  1 140 68      92.77902902
  1 140 69      91.59138696
  1 140 70      90.43347899
  1 139 70      88.02630569
  2 139 71      86.09443223
  1 138 71      83.57644736
  1 138 72      82.17649725
  1 137 72      81.05493417
  1 137 73      78.47401258
  1 137 74      77.41195433
  1 138 74      76.83470681
  1 138 75      76.22590083
  3 138 76      75.13569674
  1 138 77      73.42531971
  1 137 77      71.89186367
  1 136 77      69.00000000
  2 135 77      69.00000000
  1 135 78      68.38293246
  1 134 78      67.03378935
  2 135 79      64.00000000
  1 135 80      64.00000000
  1 134 80      63.08315186
  1 133 80      58.15008311
  1 132 80      56.80289813
  1 131 80      55.96907926
  2 131 81      55.46063924
  1 130 81      53.21400763
  2 130 82      52.09525797
  1 129 82      51.16276004
  1 128 82      50.31001602
  1 128 83      48.56746085
  2 127 83      47.78424044
  2 127 84      47.25587348
  1 126 84      46.53470408
  1 125 84      45.48235846
  2 124 84      42.86642792
  1 124 85      41.61555738
  1 123 85      38.32433262
  1 122 86      36.31851675
  1 121 86      35.60883987
  1 121 87      33.56841323
  1 120 87      33.06499740
  1 120 88      32.56157116
  1 120 89      31.76369358
  2 120 90      31.02549183
  1 120 91      30.37201993
  1 119 91      29.90648057
  1 119 92      28.68390398
  1 118 92      28.25608016
  1 118 93      27.74752634
  1 117 93      27.33490575
  1 117 94      26.95398213
  1 117 95      26.25802972
  1 117 96      25.60646716
  1 117 97      24.96480640
  1 117 98      23.43126127
  1 117 99      22.44750090
  1 116 99      21.87716507
  1 116 100      21.48493281
  1 117 100      20.88858228
  1 117 101      19.91448912
  1 117 102      18.87115370
  1 118 102      18.23692877
  1 118 103      17.33613159
  1 118 104      16.38925002
  1 119 104      15.78758384
  1 119 105      14.81520770
  1 119 106      12.36998390
  1 119 107      11.22970647
  1 118 107      10.09900673
  1 117 107       8.90048168
  1 117 108       8.50351979
  1 117 109       8.18513168
  1 116 109       7.83838441
  1 116 110       7.46858177
  1 115 110       7.19879803
  1 115 111       6.72462855
  1 115 112       6.22170721
  1 115 113       5.91822839
  1 116 113       5.62212961
  1 116 114       5.12467649
  1 116 115       4.62175385
  1 116 116       4.08746905
  1 116 117       3.75299462
  1 115 117       3.44992188
  1 115 118       3.04921797
  1 114 118       2.67290868
  1 114 119       2.35087071
  1 113 119       1.95928087
  1 113 120       1.63747028
  1 112 120       1.28556080
  1 111 120       0.92765656
  1 111 121       0.60214251
  1 110 121       0.21849693
  1 110 122      -0.10905774
  1 109 122      -0.49515522
  1 115 127       0.01081424
  1 115 128       0.07754117
END period  1

