BEGIN options
  SAVE_FLOWS
END options

BEGIN dimensions
  MAXBOUND  8454
END dimensions

BEGIN period  1
  1 2 140       0.84499998
  1 2 141       0.86499996
  1 2 142       0.88750000
  1 2 143       0.90500002
  1 2 144       0.92500000
  1 2 145       0.94499998
  1 2 146       0.96750002
  1 2 147       0.98750000
  1 2 148       1.00749998
  1 2 149       1.03500004
  1 2 150       1.05749998
  1 2 151       1.08500004
  1 2 152       1.10749998
  1 2 153       1.14250002
  1 2 154       1.16999998
  1 2 155       1.21250000
  1 2 156       1.24250002
  1 2 157       1.26750002
  1 2 158       1.30749998
  1 2 159       1.34499998
  1 2 160       1.38500004
  1 2 161       1.41750002
  1 2 162       1.46250000
  1 2 163       1.50000000
  1 2 164       1.55000000
  1 2 165       1.58249998
  1 2 166       1.62000008
  1 2 167       1.66749992
  1 2 168       1.70750008
  1 2 169       1.74500008
  1 2 170       1.78750000
  1 2 171       1.83250008
  1 2 172       1.86250000
  1 2 173       1.90499992
  1 2 174       1.92250004
  1 2 175       1.95000000
  1 2 176       1.97000008
  1 2 177       1.99249992
  1 2 178       2.01499996
  1 2 179       2.03500004
  1 2 180       2.06000004
  1 2 181       2.08250008
  1 2 182       2.10000000
  1 2 183       2.11749992
  1 3 139       0.80000000
  1 3 140       0.85000000
  1 3 141       0.86999998
  1 3 142       0.89499998
  1 3 143       0.90749998
  1 3 144       0.93000002
  1 3 145       0.95000000
  1 3 146       0.97500000
  1 3 147       0.99499998
  1 3 148       1.01250000
  1 3 149       1.04250002
  1 3 150       1.06499996
  1 3 151       1.09499998
  1 3 152       1.11499996
  1 3 153       1.15000000
  1 3 154       1.17500000
  1 3 155       1.22500000
  1 3 156       1.24499998
  1 3 157       1.27500000
  1 3 158       1.31250000
  1 3 159       1.35749998
  1 3 160       1.39750004
  1 3 161       1.42749996
  1 3 162       1.46999998
  1 3 163       1.50749998
  1 3 164       1.55749998
  1 3 165       1.59250002
  1 3 166       1.63250008
  1 3 167       1.67749996
  1 3 168       1.72000008
  1 3 169       1.75499992
  1 3 170       1.80000000
  1 3 171       1.83999996
  1 3 172       1.87000008
  1 3 173       1.90750008
  1 3 174       1.92999992
  1 3 175       1.95499992
  1 3 176       1.98500004
  1 3 177       2.00499992
  1 3 178       2.02000008
  1 3 179       2.04500008
  1 3 180       2.06499996
  1 3 181       2.08750000
  1 3 182       2.10750008
  1 3 183       2.12749996
  1 4 139       0.80249996
  1 4 140       0.85000000
  1 4 141       0.87500000
  1 4 142       0.89499998
  1 4 143       0.91250000
  1 4 144       0.93000002
  1 4 145       0.95249996
  1 4 146       0.97500000
  1 4 147       0.99750004
  1 4 148       1.01750002
  1 4 149       1.04499998
  1 4 150       1.06999998
  1 4 151       1.09750004
  1 4 152       1.11999998
  1 4 153       1.14750004
  1 4 154       1.18249998
  1 4 155       1.23249998
  1 4 156       1.25000000
  1 4 157       1.28000002
  1 4 158       1.31999998
  1 4 159       1.36250000
  1 4 160       1.40249996
  1 4 161       1.43500004
  1 4 162       1.47500000
  1 4 163       1.51499996
  1 4 164       1.56499996
  1 4 165       1.59750004
  1 4 166       1.63500004
  1 4 167       1.68250008
  1 4 168       1.72749996
  1 4 169       1.76499996
  1 4 170       1.80499992
  1 4 171       1.84249992
  1 4 172       1.87250004
  1 4 173       1.91000004
  1 4 174       1.93500004
  1 4 175       1.96749992
  1 4 176       1.98999996
  1 4 177       2.01250000
  1 4 178       2.02999992
  1 4 179       2.05249996
  1 4 180       2.07000008
  1 4 181       2.09500008
  1 4 182       2.11499996
  1 4 183       2.13500004
  1 5 139       0.80500002
  1 5 140       0.85749998
  1 5 141       0.88000002
  1 5 142       0.90000000
  1 5 143       0.91750002
  1 5 144       0.93500004
  1 5 145       0.95500002
  1 5 146       0.97749996
  1 5 147       1.00249996
  1 5 148       1.02250004
  1 5 149       1.05000000
  1 5 150       1.07500000
  1 5 151       1.10249996
  1 5 152       1.12500000
  1 5 153       1.15749998
  1 5 154       1.18750000
  1 5 155       1.23750000
  1 5 156       1.26000004
  1 5 157       1.29250002
  1 5 158       1.33249998
  1 5 159       1.37500000
  1 5 160       1.41499996
  1 5 161       1.44750004
  1 5 162       1.48999996
  1 5 163       1.53000002
  1 5 164       1.57749996
  1 5 165       1.61000004
  1 5 166       1.65000000
  1 5 167       1.69500008
  1 5 168       1.74249992
  1 5 169       1.77500000
  1 5 170       1.82000008
  1 5 171       1.85499992
  1 5 172       1.88750000
  1 5 173       1.91749992
  1 5 174       1.93999996
  1 5 175       1.97250004
  1 5 176       1.99750004
  1 5 177       2.01749992
  1 5 178       2.03500004
  1 5 179       2.06000004
  1 5 180       2.07999992
  1 5 181       2.10000000
  1 5 182       2.11749992
  1 5 183       2.13750000
  1 6 139       0.80749998
  1 6 140       0.86250000
  1 6 141       0.88249998
  1 6 142       0.90749998
  1 6 143       0.92250004
  1 6 144       0.93750000
  1 6 145       0.96000004
  1 6 146       0.98000002
  1 6 147       1.00249996
  1 6 148       1.02500000
  1 6 149       1.05000000
  1 6 150       1.07500000
  1 6 151       1.10500002
  1 6 152       1.13000002
  1 6 153       1.15749998
  1 6 154       1.19250002
  1 6 155       1.23750000
  1 6 156       1.26250000
  1 6 157       1.30000000
  1 6 158       1.34499998
  1 6 159       1.38249998
  1 6 160       1.41999998
  1 6 161       1.45749998
  1 6 162       1.49750004
  1 6 163       1.53999996
  1 6 164       1.58750000
  1 6 165       1.62000008
  1 6 166       1.66749992
  1 6 167       1.70750008
  1 6 168       1.74750004
  1 6 169       1.78750000
  1 6 170       1.82500000
  1 6 171       1.86749992
  1 6 172       1.89500008
  1 6 173       1.92250004
  1 6 174       1.94750004
  1 6 175       1.97749996
  1 6 176       2.00000000
  1 6 177       2.02250004
  1 6 178       2.04249992
  1 6 179       2.06499996
  1 6 180       2.08750000
  1 6 181       2.11000004
  1 6 182       2.12250004
  1 6 183       2.14249992
  1 7 139       0.81000004
  1 7 140       0.86499996
  1 7 141       0.88500004
  1 7 142       0.90749998
  1 7 143       0.92500000
  1 7 144       0.94250002
  1 7 145       0.96250000
  1 7 146       0.98249998
  1 7 147       1.00749998
  1 7 148       1.02500000
  1 7 149       1.05500002
  1 7 150       1.07500000
  1 7 151       1.10500002
  1 7 152       1.13000002
  1 7 153       1.15749998
  1 7 154       1.19499998
  1 7 155       1.23999996
  1 7 156       1.26750002
  1 7 157       1.30249996
  1 7 158       1.35000000
  1 7 159       1.38000002
  1 7 160       1.42500000
  1 7 161       1.46000004
  1 7 162       1.50749998
  1 7 163       1.55249996
  1 7 164       1.59250002
  1 7 165       1.62500000
  1 7 166       1.67000008
  1 7 167       1.71250000
  1 7 168       1.75249996
  1 7 169       1.79249992
  1 7 170       1.82999992
  1 7 171       1.87000008
  1 7 172       1.89750004
  1 7 173       1.92500000
  1 7 174       1.94750004
  1 7 175       1.97999992
  1 7 176       2.00249996
  1 7 177       2.02500000
  1 7 178       2.04500008
  1 7 179       2.07000008
  1 7 180       2.09249992
  1 7 181       2.11499996
  1 7 182       2.12749996
  1 7 183       2.14249992
  1 8 138       0.75250001
  1 8 139       0.81499996
  1 8 140       0.86999998
  1 8 141       0.89250002
  1 8 142       0.91499996
  1 8 143       0.93000002
  1 8 144       0.95000000
  1 8 145       0.96999998
  1 8 146       0.98750000
  1 8 147       1.01250000
  1 8 148       1.03249998
  1 8 149       1.06250000
  1 8 150       1.08249998
  1 8 151       1.11250000
  1 8 152       1.13750000
  1 8 153       1.16250000
  1 8 154       1.20749998
  1 8 155       1.24250002
  1 8 156       1.27250004
  1 8 157       1.31499996
  1 8 158       1.35749998
  1 8 159       1.39750004
  1 8 160       1.43750000
  1 8 161       1.47250004
  1 8 162       1.51999998
  1 8 163       1.56250000
  1 8 164       1.60249996
  1 8 165       1.63500004
  1 8 166       1.68250008
  1 8 167       1.72250004
  1 8 168       1.76749992
  1 8 169       1.80499992
  1 8 170       1.83750000
  1 8 171       1.87999992
  1 8 172       1.91000004
  1 8 173       1.93500004
  1 8 174       1.96000004
  1 8 175       1.98750000
  1 8 176       2.01000004
  1 8 177       2.02999992
  1 8 178       2.05000000
  1 8 179       2.07250004
  1 8 180       2.09500008
  1 8 181       2.12000008
  1 8 182       2.13500004
  1 8 183       2.15249996
  1 9 138       0.75500002
  1 9 139       0.81999998
  1 9 140       0.87250004
  1 9 141       0.89499998
  1 9 142       0.91499996
  1 9 143       0.93249998
  1 9 144       0.95000000
  1 9 145       0.97250004
  1 9 146       0.99250002
  1 9 147       1.01750002
  1 9 148       1.03750000
  1 9 149       1.06499996
  1 9 150       1.08750000
  1 9 151       1.11750002
  1 9 152       1.14250002
  1 9 153       1.17749996
  1 9 154       1.22749996
  1 9 155       1.24499998
  1 9 156       1.28000002
  1 9 157       1.31999998
  1 9 158       1.36250000
  1 9 159       1.40249996
  1 9 160       1.44499998
  1 9 161       1.48249998
  1 9 162       1.53249998
  1 9 163       1.56999998
  1 9 164       1.61000004
  1 9 165       1.64249992
  1 9 166       1.69249992
  1 9 167       1.73250008
  1 9 168       1.77749996
  1 9 169       1.81499996
  1 9 170       1.84500008
  1 9 171       1.88500004
  1 9 172       1.91499996
  1 9 173       1.93999996
  1 9 174       1.96499996
  1 9 175       1.99249992
  1 9 176       2.01499996
  1 9 177       2.03500004
  1 9 178       2.05249996
  1 9 179       2.07500000
  1 9 180       2.10000000
  1 9 181       2.12500000
  1 9 182       2.13999996
  1 9 183       2.16000004
  1 10 138       0.75500002
  1 10 139       0.82500000
  1 10 140       0.87250004
  1 10 141       0.90000000
  1 10 142       0.91999998
  1 10 143       0.93999996
  1 10 144       0.95500002
  1 10 145       0.97749996
  1 10 146       1.00000000
  1 10 147       1.02250004
  1 10 148       1.03999996
  1 10 149       1.06499996
  1 10 150       1.09499998
  1 10 151       1.12500000
  1 10 152       1.14499998
  1 10 153       1.18750000
  1 10 154       1.23500004
  1 10 155       1.25749998
  1 10 156       1.28999996
  1 10 157       1.33000002
  1 10 158       1.36750002
  1 10 159       1.41000004
  1 10 160       1.45000000
  1 10 161       1.48750000
  1 10 162       1.53999996
  1 10 163       1.58249998
  1 10 164       1.62250004
  1 10 165       1.65750008
  1 10 166       1.70750008
  1 10 167       1.73999996
  1 10 168       1.78500004
  1 10 169       1.82250004
  1 10 170       1.85499992
  1 10 171       1.89500008
  1 10 172       1.92500000
  1 10 173       1.94750004
  1 10 174       1.97250004
  1 10 175       1.99750004
  1 10 176       2.01749992
  1 10 177       2.03999996
  1 10 178       2.06000004
  1 10 179       2.07999992
  1 10 180       2.10249996
  1 10 181       2.12500000
  1 10 182       2.14500008
  1 10 183       2.16499996
  1 11 138       0.75749998
  1 11 139       0.83000002
  1 11 140       0.87500000
  1 11 141       0.90500002
  1 11 142       0.92500000
  1 11 143       0.94250002
  1 11 144       0.96000004
  1 11 145       0.98000002
  1 11 146       1.00249996
  1 11 147       1.02500000
  1 11 148       1.04750004
  1 11 149       1.07250004
  1 11 150       1.10000000
  1 11 151       1.12500000
  1 11 152       1.15000000
  1 11 153       1.18750000
  1 11 154       1.23750000
  1 11 155       1.26250000
  1 11 156       1.29499998
  1 11 157       1.33750000
  1 11 158       1.37500000
  1 11 159       1.41999998
  1 11 160       1.46000004
  1 11 161       1.49750004
  1 11 162       1.54499998
  1 11 163       1.58750000
  1 11 164       1.62749996
  1 11 165       1.66749992
  1 11 166       1.71749992
  1 11 167       1.75000000
  1 11 168       1.79750004
  1 11 169       1.83750000
  1 11 170       1.86749992
  1 11 171       1.90249996
  1 11 172       1.93500004
  1 11 173       1.95750008
  1 11 174       1.97749996
  1 11 175       2.00750008
  1 11 176       2.02749996
  1 11 177       2.05249996
  1 11 178       2.06749992
  1 11 179       2.08750000
  1 11 180       2.11000004
  1 11 181       2.13250008
  1 11 182       2.15249996
  1 11 183       2.17250004
  1 12 138       0.75749998
  1 12 139       0.83249998
  1 12 140       0.88000002
  1 12 141       0.90749998
  1 12 142       0.93000002
  1 12 143       0.94499998
  1 12 144       0.96750002
  1 12 145       0.98999996
  1 12 146       1.00500002
  1 12 147       1.02749996
  1 12 148       1.05500002
  1 12 149       1.07749996
  1 12 150       1.10500002
  1 12 151       1.13000002
  1 12 152       1.15500002
  1 12 153       1.19250002
  1 12 154       1.23500004
  1 12 155       1.26499996
  1 12 156       1.30000000
  1 12 157       1.34499998
  1 12 158       1.38500004
  1 12 159       1.42749996
  1 12 160       1.46999998
  1 12 161       1.50000000
  1 12 162       1.55000000
  1 12 163       1.59250002
  1 12 164       1.63250008
  1 12 165       1.67250004
  1 12 166       1.71499996
  1 12 167       1.75750008
  1 12 168       1.80249996
  1 12 169       1.83999996
  1 12 170       1.87250004
  1 12 171       1.90750008
  1 12 172       1.93999996
  1 12 173       1.96499996
  1 12 174       1.98750000
  1 12 175       2.00750008
  1 12 176       2.02999992
  1 12 177       2.05499992
  1 12 178       2.07250004
  1 12 179       2.09500008
  1 12 180       2.11499996
  1 12 181       2.13500004
  1 12 182       2.15750008
  1 12 183       2.17250004
  1 13 137       0.57249999
  1 13 138       0.75999999
  1 13 139       0.84499998
  1 13 140       0.88750000
  1 13 141       0.91250000
  1 13 142       0.93249998
  1 13 143       0.95000000
  1 13 144       0.96750002
  1 13 145       0.99250002
  1 13 146       1.00749998
  1 13 147       1.03249998
  1 13 148       1.05500002
  1 13 149       1.08249998
  1 13 150       1.11000004
  1 13 151       1.13750000
  1 13 152       1.16750002
  1 13 153       1.20000000
  1 13 154       1.23750000
  1 13 155       1.27250004
  1 13 156       1.30749998
  1 13 157       1.34499998
  1 13 158       1.39250002
  1 13 159       1.43750000
  1 13 160       1.48000002
  1 13 161       1.51000004
  1 13 162       1.55749998
  1 13 163       1.60000000
  1 13 164       1.64249992
  1 13 165       1.67749996
  1 13 166       1.72000008
  1 13 167       1.76250000
  1 13 168       1.80750008
  1 13 169       1.84500008
  1 13 170       1.87500000
  1 13 171       1.91000004
  1 13 172       1.94500008
  1 13 173       1.97749996
  1 13 174       1.99750004
  1 13 175       2.01499996
  1 13 176       2.03750000
  1 13 177       2.06250000
  1 13 178       2.07999992
  1 13 179       2.10000000
  1 13 180       2.12000008
  1 13 181       2.13999996
  1 13 182       2.16000004
  1 13 183       2.17999992
  1 14 137       0.56750002
  1 14 138       0.75749998
  1 14 139       0.83500004
  1 14 140       0.88999996
  1 14 141       0.91499996
  1 14 142       0.93500004
  1 14 143       0.95000000
  1 14 144       0.96999998
  1 14 145       0.99499998
  1 14 146       1.01000004
  1 14 147       1.03500004
  1 14 148       1.05500002
  1 14 149       1.08750000
  1 14 150       1.11250000
  1 14 151       1.14250002
  1 14 152       1.16999998
  1 14 153       1.21250000
  1 14 154       1.24499998
  1 14 155       1.27749996
  1 14 156       1.31250000
  1 14 157       1.35000000
  1 14 158       1.39499998
  1 14 159       1.44499998
  1 14 160       1.48500004
  1 14 161       1.51999998
  1 14 162       1.56750002
  1 14 163       1.60499992
  1 14 164       1.64750004
  1 14 165       1.68250008
  1 14 166       1.72749996
  1 14 167       1.77000008
  1 14 168       1.81499996
  1 14 169       1.84750004
  1 14 170       1.87749996
  1 14 171       1.91499996
  1 14 172       1.94750004
  1 14 173       1.98500004
  1 14 174       2.00499992
  1 14 175       2.02749996
  1 14 176       2.04500008
  1 14 177       2.06749992
  1 14 178       2.08750000
  1 14 179       2.11000004
  1 14 180       2.12999992
  1 14 181       2.15249996
  1 14 182       2.16749992
  1 14 183       2.18500004
  1 15 137       0.55000000
  1 15 138       0.75250001
  1 15 139       0.83999996
  1 15 140       0.89250002
  1 15 141       0.91999998
  1 15 142       0.93999996
  1 15 143       0.95249996
  1 15 144       0.98000002
  1 15 145       0.99750004
  1 15 146       1.01750002
  1 15 147       1.03999996
  1 15 148       1.06000004
  1 15 149       1.08750000
  1 15 150       1.11499996
  1 15 151       1.14499998
  1 15 152       1.16000004
  1 15 153       1.22250004
  1 15 154       1.24750004
  1 15 155       1.28249998
  1 15 156       1.31999998
  1 15 157       1.35749998
  1 15 158       1.40749998
  1 15 159       1.45249996
  1 15 160       1.49250002
  1 15 161       1.52749996
  1 15 162       1.57749996
  1 15 163       1.62000008
  1 15 164       1.65750008
  1 15 165       1.69500008
  1 15 166       1.73750000
  1 15 167       1.77749996
  1 15 168       1.81749992
  1 15 169       1.85249996
  1 15 170       1.87999992
  1 15 171       1.91749992
  1 15 172       1.94500008
  1 15 173       1.98999996
  1 15 174       2.01250000
  1 15 175       2.03500004
  1 15 176       2.05750008
  1 15 177       2.07500000
  1 15 178       2.09500008
  1 15 179       2.11250000
  1 15 180       2.13250008
  1 15 181       2.15750008
  1 15 182       2.17999992
  1 15 183       2.19249992
  1 16 136       0.41250000
  1 16 137       0.53249998
  1 16 138       0.75250001
  1 16 139       0.84250002
  1 16 140       0.89499998
  1 16 141       0.92500000
  1 16 142       0.94250002
  1 16 143       0.95500002
  1 16 144       0.98249998
  1 16 145       1.00000000
  1 16 146       1.01999998
  1 16 147       1.04499998
  1 16 148       1.06250000
  1 16 149       1.09499998
  1 16 150       1.11750002
  1 16 151       1.15000000
  1 16 152       1.17250004
  1 16 153       1.23000002
  1 16 154       1.24750004
  1 16 155       1.28750000
  1 16 156       1.32500000
  1 16 157       1.36250000
  1 16 158       1.41250000
  1 16 159       1.45749998
  1 16 160       1.49750004
  1 16 161       1.53249998
  1 16 162       1.58750000
  1 16 163       1.62000008
  1 16 164       1.66749992
  1 16 165       1.70249996
  1 16 166       1.74750004
  1 16 167       1.78500004
  1 16 168       1.82500000
  1 16 169       1.85249996
  1 16 170       1.88250008
  1 16 171       1.92000008
  1 16 172       1.94750004
  1 16 173       1.99750004
  1 16 174       2.02250004
  1 16 175       2.04249992
  1 16 176       2.06499996
  1 16 177       2.08500004
  1 16 178       2.10249996
  1 16 179       2.12250004
  1 16 180       2.13999996
  1 16 181       2.16000004
  1 16 182       2.18500004
  1 16 183       2.20499992
  1 17 135       0.22500000
  1 17 136       0.41250000
  1 17 137       0.52500000
  1 17 138       0.74499998
  1 17 139       0.83750000
  1 17 140       0.89499998
  1 17 141       0.92500000
  1 17 142       0.94499998
  1 17 143       0.96000004
  1 17 144       0.98249998
  1 17 145       1.00000000
  1 17 146       1.02500000
  1 17 147       1.04750004
  1 17 148       1.06750002
  1 17 149       1.09499998
  1 17 150       1.12250004
  1 17 151       1.15249996
  1 17 152       1.17749996
  1 17 153       1.23249998
  1 17 154       1.25000000
  1 17 155       1.29250002
  1 17 156       1.33249998
  1 17 157       1.36750002
  1 17 158       1.41750002
  1 17 159       1.46000004
  1 17 160       1.50249996
  1 17 161       1.53750000
  1 17 162       1.59250002
  1 17 163       1.62749996
  1 17 164       1.67500000
  1 17 165       1.71000004
  1 17 166       1.75000000
  1 17 167       1.78999996
  1 17 168       1.82749996
  1 17 169       1.85750008
  1 17 170       1.88500004
  1 17 171       1.91499996
  1 17 172       1.94750004
  1 17 173       1.99750004
  1 17 174       2.02500000
  1 17 175       2.04750004
  1 17 176       2.06749992
  1 17 177       2.08999996
  1 17 178       2.10499992
  1 17 179       2.12749996
  1 17 180       2.14500008
  1 17 181       2.16499996
  1 17 182       2.18999996
  1 17 183       2.21000004
  1 18 135       0.19750000
  1 18 136       0.41500001
  1 18 137       0.53249998
  1 18 138       0.73750000
  1 18 139       0.83750000
  1 18 140       0.90749998
  1 18 141       0.93249998
  1 18 142       0.95249996
  1 18 143       0.96499996
  1 18 144       0.98750000
  1 18 145       1.00500002
  1 18 146       1.03000002
  1 18 147       1.05249996
  1 18 148       1.07500000
  1 18 149       1.10000000
  1 18 150       1.13000002
  1 18 151       1.15749998
  1 18 152       1.18500004
  1 18 153       1.23249998
  1 18 154       1.25749998
  1 18 155       1.29750004
  1 18 156       1.33249998
  1 18 157       1.37250004
  1 18 158       1.42250004
  1 18 159       1.46750002
  1 18 160       1.51250000
  1 18 161       1.54750004
  1 18 162       1.59250002
  1 18 163       1.63250008
  1 18 164       1.68500004
  1 18 165       1.71749992
  1 18 166       1.75750008
  1 18 167       1.79750004
  1 18 168       1.83750000
  1 18 169       1.86499996
  1 18 170       1.88999996
  1 18 171       1.91749992
  1 18 172       1.94750004
  1 18 173       2.00249996
  1 18 174       2.03250008
  1 18 175       2.05499992
  1 18 176       2.07250004
  1 18 177       2.09500008
  1 18 178       2.11000004
  1 18 179       2.13250008
  1 18 180       2.15249996
  1 18 181       2.17000008
  1 18 182       2.18999996
  1 18 183       2.21250000
  1 19 135       2.21250000
  1 19 136       0.40000000
  1 19 137       0.55000000
  1 19 138       0.74000001
  1 19 139       0.84250002
  1 19 140       0.90749998
  1 19 141       0.93750000
  1 19 142       0.95749998
  1 19 143       0.97250004
  1 19 144       0.99499998
  1 19 145       1.01250000
  1 19 146       1.03249998
  1 19 147       1.05500002
  1 19 148       1.07749996
  1 19 149       1.10500002
  1 19 150       1.13249998
  1 19 151       1.16250000
  1 19 152       1.19250002
  1 19 153       1.23750000
  1 19 154       1.26250000
  1 19 155       1.30249996
  1 19 156       1.33999996
  1 19 157       1.38249998
  1 19 158       1.43249998
  1 19 159       1.47250004
  1 19 160       1.51750002
  1 19 161       1.55000000
  1 19 162       1.59499998
  1 19 163       1.63500004
  1 19 164       1.68999996
  1 19 165       1.72250004
  1 19 166       1.76499996
  1 19 167       1.80499992
  1 19 168       1.83999996
  1 19 169       1.87000008
  1 19 170       1.89500008
  1 19 171       1.92250004
  1 19 172       1.95750008
  1 19 173       2.01000004
  1 19 174       2.03500004
  1 19 175       2.06000004
  1 19 176       2.07999992
  1 19 177       2.10499992
  1 19 178       2.11749992
  1 19 179       2.13750000
  1 19 180       2.16000004
  1 19 181       2.18250008
  1 19 182       2.19750004
  1 19 183       2.21499996
  1 20 135       2.21499996
  1 20 136       0.35999999
  1 20 137       0.54499998
  1 20 138       0.73249998
  1 20 139       0.84250002
  1 20 140       0.91250000
  1 20 141       0.93999996
  1 20 142       0.96000004
  1 20 143       0.97749996
  1 20 144       0.99250002
  1 20 145       1.01499996
  1 20 146       1.03750000
  1 20 147       1.06000004
  1 20 148       1.07749996
  1 20 149       1.10749998
  1 20 150       1.13750000
  1 20 151       1.16750002
  1 20 152       1.19499998
  1 20 153       1.23999996
  1 20 154       1.26999998
  1 20 155       1.31250000
  1 20 156       1.35249996
  1 20 157       1.39250002
  1 20 158       1.44499998
  1 20 159       1.48000002
  1 20 160       1.52500000
  1 20 161       1.55249996
  1 20 162       1.59750004
  1 20 163       1.64249992
  1 20 164       1.69249992
  1 20 165       1.72749996
  1 20 166       1.76749992
  1 20 167       1.80750008
  1 20 168       1.84500008
  1 20 169       1.87500000
  1 20 170       1.90000000
  1 20 171       1.92500000
  1 20 172       1.96250000
  1 20 173       2.01749992
  1 20 174       2.04249992
  1 20 175       2.06250000
  1 20 176       2.08250008
  1 20 177       2.10499992
  1 20 178       2.12250004
  1 20 179       2.14249992
  1 20 180       2.16499996
  1 20 181       2.18999996
  1 20 182       2.20750008
  1 20 183       2.22000008
  1 21 135       0.08000000
  1 21 136       0.35000000
  1 21 137       0.54499998
  1 21 138       0.73000002
  1 21 139       0.83999996
  1 21 140       0.91250000
  1 21 141       0.94499998
  1 21 142       0.96250000
  1 21 143       0.98249998
  1 21 144       0.99499998
  1 21 145       1.01750002
  1 21 146       1.04250002
  1 21 147       1.06250000
  1 21 148       1.08249998
  1 21 149       1.11250000
  1 21 150       1.14250002
  1 21 151       1.17250004
  1 21 152       1.20000000
  1 21 153       1.24250002
  1 21 154       1.27500000
  1 21 155       1.31999998
  1 21 156       1.35749998
  1 21 157       1.40000000
  1 21 158       1.45000000
  1 21 159       1.48999996
  1 21 160       1.53249998
  1 21 161       1.56499996
  1 21 162       1.60499992
  1 21 163       1.64750004
  1 21 164       1.69750004
  1 21 165       1.73250008
  1 21 166       1.77500000
  1 21 167       1.81000004
  1 21 168       1.84500008
  1 21 169       1.87999992
  1 21 170       1.90499992
  1 21 171       1.93250008
  1 21 172       1.97000008
  1 21 173       2.02749996
  1 21 174       2.04750004
  1 21 175       2.07000008
  1 21 176       2.08999996
  1 21 177       2.11000004
  1 21 178       2.12999992
  1 21 179       2.15000000
  1 21 180       2.17000008
  1 21 181       2.19500008
  1 21 182       2.21250000
  1 21 183       2.22749996
  1 22 135       0.13250000
  1 22 136       0.32500000
  1 22 137       0.53000002
  1 22 138       0.71750002
  1 22 139       0.83750000
  1 22 140       0.91250000
  1 22 141       0.94499998
  1 22 142       0.96750002
  1 22 143       0.98750000
  1 22 144       1.00000000
  1 22 145       1.02500000
  1 22 146       1.04499998
  1 22 147       1.06999998
  1 22 148       1.08750000
  1 22 149       1.11750002
  1 22 150       1.14750004
  1 22 151       1.17749996
  1 22 152       1.20500002
  1 22 153       1.24250002
  1 22 154       1.28000002
  1 22 155       1.31999998
  1 22 156       1.36250000
  1 22 157       1.40249996
  1 22 158       1.45500002
  1 22 159       1.49250002
  1 22 160       1.53750000
  1 22 161       1.56999998
  1 22 162       1.61499996
  1 22 163       1.65499992
  1 22 164       1.70499992
  1 22 165       1.73999996
  1 22 166       1.77999992
  1 22 167       1.81749992
  1 22 168       1.84750004
  1 22 169       1.88250008
  1 22 170       1.91000004
  1 22 171       1.93500004
  1 22 172       1.97999992
  1 22 173       2.03500004
  1 22 174       2.05249996
  1 22 175       2.07500000
  1 22 176       2.09500008
  1 22 177       2.11499996
  1 22 178       2.13250008
  1 22 179       2.15249996
  1 22 180       2.17500000
  1 22 181       2.19750004
  1 22 182       2.22000008
  1 22 183       2.23500004
  1 23 135       0.10500000
  1 23 136       0.32249999
  1 23 137       0.51250000
  1 23 138       0.71999998
  1 23 139       0.83249998
  1 23 140       0.91250000
  1 23 141       0.94750004
  1 23 142       0.96999998
  1 23 143       0.98999996
  1 23 144       1.00500002
  1 23 145       1.02749996
  1 23 146       1.05249996
  1 23 147       1.07250004
  1 23 148       1.09250002
  1 23 149       1.12250004
  1 23 150       1.14750004
  1 23 151       1.18500004
  1 23 152       1.21250000
  1 23 153       1.25000000
  1 23 154       1.28999996
  1 23 155       1.33249998
  1 23 156       1.37250004
  1 23 157       1.41000004
  1 23 158       1.46250000
  1 23 159       1.50000000
  1 23 160       1.54750004
  1 23 161       1.58249998
  1 23 162       1.62250004
  1 23 163       1.66499996
  1 23 164       1.71749992
  1 23 165       1.75249996
  1 23 166       1.79249992
  1 23 167       1.82749996
  1 23 168       1.85499992
  1 23 169       1.88750000
  1 23 170       1.91000004
  1 23 171       1.94249992
  1 23 172       1.98750000
  1 23 173       2.04249992
  1 23 174       2.06000004
  1 23 175       2.08500004
  1 23 176       2.10249996
  1 23 177       2.12000008
  1 23 178       2.13500004
  1 23 179       2.15750008
  1 23 180       2.17749996
  1 23 181       2.20499992
  1 23 182       2.22500000
  1 23 183       2.24249992
  1 24 135       0.12250000
  1 24 136       0.33000000
  1 24 137       0.51500001
  1 24 138       0.71750002
  1 24 139       0.83000002
  1 24 140       0.91499996
  1 24 141       0.95000000
  1 24 142       0.97250004
  1 24 143       0.99250002
  1 24 144       1.00749998
  1 24 145       1.03249998
  1 24 146       1.05249996
  1 24 147       1.07500000
  1 24 148       1.10000000
  1 24 149       1.12749996
  1 24 150       1.15000000
  1 24 151       1.18750000
  1 24 152       1.21750002
  1 24 153       1.25500002
  1 24 154       1.29499998
  1 24 155       1.33750000
  1 24 156       1.38000002
  1 24 157       1.41999998
  1 24 158       1.46999998
  1 24 159       1.50749998
  1 24 160       1.55249996
  1 24 161       1.58999996
  1 24 162       1.63250008
  1 24 163       1.67749996
  1 24 164       1.72749996
  1 24 165       1.76250000
  1 24 166       1.80249996
  1 24 167       1.83500004
  1 24 168       1.86499996
  1 24 169       1.88999996
  1 24 170       1.91749992
  1 24 171       1.96000004
  1 24 172       2.00750008
  1 24 173       2.04750004
  1 24 174       2.06749992
  1 24 175       2.09500008
  1 24 176       2.10750008
  1 24 177       2.12999992
  1 24 178       2.14249992
  1 24 179       2.16499996
  1 24 180       2.18500004
  1 24 181       2.21250000
  1 24 182       2.23250008
  1 24 183       2.25000000