BEGIN options
  SAVE_FLOWS
END options

BEGIN dimensions
  MAXBOUND  16431
END dimensions

BEGIN period  1
  1 3 144       0.10000000
  1 3 145       0.10000000
  1 3 146       0.10000000
  1 3 147       0.10000000
  1 3 148       0.10000000
  1 3 149       0.10000000
  1 3 150       0.10000000
  1 3 151       0.10000000
  1 3 152       0.10000000
  1 3 153       0.10000000
  1 3 154       0.10000000
  1 3 155       0.10000000
  1 3 156       0.10000000
  1 3 157       0.10000000
  1 3 158       0.10000000
  1 3 159       0.10000000
  1 3 160       0.10000000
  1 3 161       0.10000000
  1 3 162       0.10000000
  1 3 163       0.10000000
  1 3 164       0.10000000
  1 3 165       0.10000000
  1 3 166       0.10000000
  1 3 167       0.10000000
  1 3 168       0.10000000
  1 3 169       0.10000000
  1 3 170       0.10000000
  1 3 171       0.10000000
  1 3 172       0.10000000
  1 3 173       0.10000000
  1 3 174       0.10000000
  1 3 175       0.10000000
  1 3 176       0.10000000
  1 3 177       0.10000000
  1 3 178       0.10000000
  1 3 179       0.10000000
  1 3 180       0.10000000
  1 3 181       0.10000000
  1 3 182       0.10000000
  1 3 183       0.10000000
  1 3 184       0.10000000
  1 3 185       0.10000000
  1 3 186       0.10000000
  1 3 187       0.10000000
  1 3 188       0.10000000
  1 3 189       0.10000000
  1 3 190       0.10000000
  1 3 191       0.10000000
  1 3 192       0.10000000
  1 3 193       0.10000000
  1 3 194       0.10000000
  1 3 195       0.10000000
  1 3 196       0.10000000
  1 3 197       0.10000000
  1 3 198       0.10000000
  1 3 199       0.10000000
  1 3 200       0.10000000
  1 3 201       0.10000000
  1 3 202       0.10000000
  1 3 203       0.10000000
  1 3 204       0.10000000
  1 3 205       0.10000000
  1 3 206       0.10000000
  1 3 207       0.10000000
  1 3 208       0.10000000
  1 3 209       0.10000000
  1 3 210       0.10000000
  1 3 211       0.10000000
  1 3 212       0.10000000
  1 3 213       0.10000000
  1 3 214       0.10000000
  1 3 215       0.10000000
  1 3 216       0.10000000
  1 3 217       0.10000000
  1 3 218       0.10000000
  1 3 219       0.10000000
  1 3 220       0.10000000
  1 3 221       0.10000000
  1 3 222       0.10000000
  1 3 223       0.10000000
  1 3 224       0.10000000
  1 3 225       0.10000000
  1 3 226       0.10000000
  1 3 227       0.10000000
  1 3 228       0.10000000
  1 3 229       0.10000000
  1 3 230       0.10000000
  1 3 231       0.10000000
  1 3 232       0.10000000
  1 3 233       0.10000000
  1 4 143       0.10000000
  1 4 144       0.10000000
  1 4 145       0.10000000
  1 4 146       0.10000000
  1 4 147       0.10000000
  1 4 148       0.10000000
  1 4 149       0.10000000
  1 4 150       0.10000000
  1 4 151       0.10000000
  1 4 152       0.10000000
  1 4 153       0.10000000
  1 4 154       0.10000000
  1 4 155       0.10000000
  1 4 156       0.10000000
  1 4 157       0.10000000
  1 4 158       0.10000000
  1 4 159       0.10000000
  1 4 160       0.10000000
  1 4 161       0.10000000
  1 4 162       0.10000000
  1 4 163       0.10000000
  1 4 164       0.10000000
  1 4 165       0.10000000
  1 4 166       0.10000000
  1 4 167       0.10000000
  1 4 168       0.10000000
  1 4 169       0.10000000
  1 4 170       0.10000000
  1 4 171       0.10000000
  1 4 172       0.10000000
  1 4 173       0.10000000
  1 4 174       0.10000000
  1 4 175       0.10000000
  1 4 176       0.10000000
  1 4 177       0.10000000
  1 4 178       0.10000000
  1 4 179       0.10000000
  1 4 180       0.10000000
  1 4 181       0.10000000
  1 4 182       0.10000000
  1 4 183       0.10000000
  1 4 184       0.10000000
  1 4 185       0.10000000
  1 4 186       0.10000000
  1 4 187       0.10000000
  1 4 188       0.10000000
  1 4 189       0.10000000
  1 4 190       0.10000000
  1 4 191       0.10000000
  1 4 192       0.10000000
  1 4 193       0.10000000
  1 4 194       0.10000000
  1 4 195       0.10000000
  1 4 196       0.10000000
  1 4 197       0.10000000
  1 4 198       0.10000000
  1 4 199       0.10000000
  1 4 200       0.10000000
  1 4 201       0.10000000
  1 4 202       0.10000000
  1 4 203       0.10000000
  1 4 204       0.10000000
  1 4 205       0.10000000
  1 4 206       0.10000000
  1 4 207       0.10000000
  1 4 208       0.10000000
  1 4 209       0.10000000
  1 4 210       0.10000000
  1 4 211       0.10000000
  1 4 212       0.10000000
  1 4 213       0.10000000
  1 4 214       0.10000000
  1 4 215       0.10000000
  1 4 216       0.10000000
  1 4 217       0.10000000
  1 4 218       0.10000000
  1 4 219       0.10000000
  1 4 220       0.10000000
  1 4 221       0.10000000
  1 4 222       0.10000000
  1 4 223       0.10000000
  1 4 224       0.10000000
  1 4 225       0.10000000
  1 4 226       0.10000000
  1 4 227       0.10000000
  1 4 228       0.10000000
  1 4 229       0.10000000
  1 4 230       0.10000000
  1 4 231       0.10000000
  1 4 232       0.10000000
  1 4 233       0.10000000
  1 5 142       0.10000000
  1 5 143       0.10000000
  1 5 144       0.10000000
  1 5 145       0.10000000
  1 5 146       0.10000000
  1 5 147       0.10000000
  1 5 148       0.10000000
  1 5 149       0.10000000
  1 5 150       0.10000000
  1 5 151       0.10000000
  1 5 152       0.10000000
  1 5 153       0.10000000
  1 5 154       0.10000000
  1 5 155       0.10000000
  1 5 156       0.10000000
  1 5 157       0.10000000
  1 5 158       0.10000000
  1 5 159       0.10000000
  1 5 160       0.10000000
  1 5 161       0.10000000
  1 5 162       0.10000000
  1 5 163       0.10000000
  1 5 164       0.10000000
  1 5 165       0.10000000
  1 5 166       0.10000000
  1 5 167       0.10000000
  1 5 168       0.10000000
  1 5 169       0.10000000
  1 5 170       0.10000000
  1 5 171       0.10000000
  1 5 172       0.10000000
  1 5 173       0.10000000
  1 5 174       0.10000000
  1 5 175       0.10000000
  1 5 176       0.10000000
  1 5 177       0.10000000
  1 5 178       0.10000000
  1 5 179       0.10000000
  1 5 180       0.10000000
  1 5 181       0.10000000
  1 5 182       0.10000000
  1 5 183       0.10000000
  1 5 184       0.10000000
  1 5 185       0.10000000
  1 5 186       0.10000000
  1 5 187       0.10000000
  1 5 188       0.10000000
  1 5 189       0.10000000
  1 5 190       0.10000000
  1 5 191       0.10000000
  1 5 192       0.10000000
  1 5 193       0.10000000
  1 5 194       0.10000000
  1 5 195       0.10000000
  1 5 196       0.10000000
  1 5 197       0.10000000
  1 5 198       0.10000000
  1 5 199       0.10000000
  1 5 200       0.10000000
  1 5 201       0.10000000
  1 5 202       0.10000000
  1 5 203       0.10000000
  1 5 204       0.10000000
  1 5 205       0.10000000
  1 5 206       0.10000000
  1 5 207       0.10000000
  1 5 208       0.10000000
  1 5 209       0.10000000
  1 5 210       0.10000000
  1 5 211       0.10000000
  1 5 212       0.10000000
  1 5 213       0.10000000
  1 5 214       0.10000000
  1 5 215       0.10000000
  1 5 216       0.10000000
  1 5 217       0.10000000
  1 5 218       0.10000000
  1 5 219       0.10000000
  1 5 220       0.10000000
  1 5 221       0.10000000
  1 5 222       0.10000000
  1 5 223       0.10000000
  1 5 224       0.10000000
  1 5 225       0.10000000
  1 5 226       0.10000000
  1 5 227       0.10000000
  1 5 228       0.10000000
  1 5 229       0.10000000
  1 5 230       0.10000000
  1 5 231       0.10000000
  1 5 232       0.10000000
  1 5 233       0.10000000
  1 6 140       0.10000000
  1 6 141       0.10000000
  1 6 142       0.10000000
  1 6 143       0.10000000
  1 6 144       0.10000000
  1 6 145       0.10000000
  1 6 146       0.10000000
  1 6 147       0.10000000
  1 6 148       0.10000000
  1 6 149       0.10000000
  1 6 150       0.10000000
  1 6 151       0.10000000
  1 6 152       0.10000000
  1 6 153       0.10000000
  1 6 154       0.10000000
  1 6 155       0.10000000
  1 6 156       0.10000000
  1 6 157       0.10000000
  1 6 158       0.10000000
  1 6 159       0.10000000
  1 6 160       0.10000000
  1 6 161       0.10000000
  1 6 162       0.10000000
  1 6 163       0.10000000
  1 6 164       0.10000000
  1 6 165       0.10000000
  1 6 166       0.10000000
  1 6 167       0.10000000
  1 6 168       0.10000000
  1 6 169       0.10000000
  1 6 170       0.10000000
  1 6 171       0.10000000
  1 6 172       0.10000000
  1 6 173       0.10000000
  1 6 174       0.10000000
  1 6 175       0.10000000
  1 6 176       0.10000000
  1 6 177       0.10000000
  1 6 178       0.10000000
  1 6 179       0.10000000
  1 6 180       0.10000000
  1 6 181       0.10000000
  1 6 182       0.10000000
  1 6 183       0.10000000
  1 6 184       0.10000000
  1 6 185       0.10000000
  1 6 186       0.10000000
  1 6 187       0.10000000
  1 6 188       0.10000000
  1 6 189       0.10000000
  1 6 190       0.10000000
  1 6 191       0.10000000
  1 6 192       0.10000000
  1 6 193       0.10000000
  1 6 194       0.10000000
  1 6 195       0.10000000
  1 6 196       0.10000000
  1 6 197       0.10000000
  1 6 198       0.10000000
  1 6 199       0.10000000
  1 6 200       0.10000000
  1 6 201       0.10000000
  1 6 202       0.10000000
  1 6 203       0.10000000
  1 6 204       0.10000000
  1 6 205       0.10000000
  1 6 206       0.10000000
  1 6 207       0.10000000
  1 6 208       0.10000000
  1 6 209       0.10000000
  1 6 210       0.10000000
  1 6 211       0.10000000
  1 6 212       0.10000000
  1 6 213       0.10000000
  1 6 214       0.10000000
  1 6 215       0.10000000
  1 6 216       0.10000000
  1 6 217       0.10000000
  1 6 218       0.10000000
  1 6 219       0.10000000
  1 6 220       0.10000000
  1 6 221       0.10000000
  1 6 222       0.10000000
  1 6 223       0.10000000
  1 6 224       0.10000000
  1 6 225       0.10000000
  1 6 226       0.10000000
  1 6 227       0.10000000
  1 6 228       0.10000000
  1 6 229       0.10000000
  1 6 230       0.10000000
  1 6 231       0.10000000
  1 6 232       0.10000000
  1 6 233       0.10000000
  1 7 139       0.10000000
  1 7 140       0.10000000
  1 7 141       0.10000000
  1 7 142       0.10000000
  1 7 143       0.10000000
  1 7 144       0.10000000
  1 7 145       0.10000000
  1 7 146       0.10000000
  1 7 147       0.10000000
  1 7 148       0.10000000
  1 7 149       0.10000000
  1 7 150       0.10000000
  1 7 151       0.10000000
  1 7 152       0.10000000
  1 7 153       0.10000000
  1 7 154       0.10000000
  1 7 155       0.10000000
  1 7 156       0.10000000
  1 7 157       0.10000000
  1 7 158       0.10000000
  1 7 159       0.10000000
  1 7 160       0.10000000
  1 7 161       0.10000000
  1 7 162       0.10000000
  1 7 163       0.10000000
  1 7 164       0.10000000
  1 7 165       0.10000000
  1 7 166       0.10000000
  1 7 167       0.10000000
  1 7 168       0.10000000
  1 7 169       0.10000000
  1 7 170       0.10000000
  1 7 171       0.10000000
  1 7 172       0.10000000
  1 7 173       0.10000000
  1 7 174       0.10000000
  1 7 175       0.10000000
  1 7 176       0.10000000
  1 7 177       0.10000000
  1 7 178       0.10000000
  1 7 179       0.10000000
  1 7 180       0.10000000
  1 7 181       0.10000000
  1 7 182       0.10000000
  1 7 183       0.10000000
  1 7 184       0.10000000
  1 7 185       0.10000000
  1 7 186       0.10000000
  1 7 187       0.10000000
  1 7 188       0.10000000
  1 7 189       0.10000000
  1 7 190       0.10000000
  1 7 191       0.10000000
  1 7 192       0.10000000
  1 7 193       0.10000000
  1 7 194       0.10000000
  1 7 195       0.10000000
  1 7 196       0.10000000
  1 7 197       0.10000000
  1 7 198       0.10000000
  1 7 199       0.10000000
  1 7 200       0.10000000
  1 7 201       0.10000000
  1 7 202       0.10000000
  1 7 203       0.10000000
  1 7 204       0.10000000
  1 7 205       0.10000000
  1 7 206       0.10000000
  1 7 207       0.10000000
  1 7 208       0.10000000
  1 7 209       0.10000000
  1 7 210       0.10000000
  1 7 211       0.10000000
  1 7 212       0.10000000
  1 7 213       0.10000000
  1 7 214       0.10000000
  1 7 215       0.10000000
  1 7 216       0.10000000
  1 7 217       0.10000000
  1 7 218       0.10000000
  1 7 219       0.10000000
  1 7 220       0.10000000
  1 7 221       0.10000000
  1 7 222       0.10000000
  1 7 223       0.10000000
  1 7 224       0.10000000
  1 7 225       0.10000000
  1 7 226       0.10000000
  1 7 227       0.10000000
  1 7 228       0.10000000
  1 7 229       0.10000000
  1 7 230       0.10000000
  1 7 231       0.10000000
  1 7 232       0.10000000
  1 7 233       0.10000000
  1 8 138       0.10000000
  1 8 139       0.10000000
  1 8 140       0.10000000
  1 8 141       0.10000000
  1 8 142       0.10000000
  1 8 143       0.10000000
  1 8 144       0.10000000
  1 8 145       0.10000000
  1 8 146       0.10000000
  1 8 147       0.10000000
  1 8 148       0.10000000
  1 8 149       0.10000000
  1 8 150       0.10000000
  1 8 151       0.10000000
  1 8 152       0.10000000
  1 8 153       0.10000000
  1 8 154       0.10000000
  1 8 155       0.10000000
  1 8 156       0.10000000
  1 8 157       0.10000000
  1 8 158       0.10000000
  1 8 159       0.10000000
  1 8 160       0.10000000
  1 8 161       0.10000000
  1 8 162       0.10000000
  1 8 163       0.10000000
  1 8 164       0.10000000
  1 8 165       0.10000000
  1 8 166       0.10000000
  1 8 167       0.10000000
  1 8 168       0.10000000
  1 8 169       0.10000000
  1 8 170       0.10000000
  1 8 171       0.10000000
  1 8 172       0.10000000
  1 8 173       0.10000000
  1 8 174       0.10000000
  1 8 175       0.10000000
  1 8 176       0.10000000
  1 8 177       0.10000000
  1 8 178       0.10000000
  1 8 179       0.10000000
  1 8 180       0.10000000
  1 8 181       0.10000000
  1 8 182       0.10000000
  1 8 183       0.10000000
  1 8 184       0.10000000
  1 8 185       0.10000000
  1 8 186       0.10000000
  1 8 187       0.10000000
  1 8 188       0.10000000
  1 8 189       0.10000000
  1 8 190       0.10000000
  1 8 191       0.10000000
  1 8 192       0.10000000
  1 8 193       0.10000000
  1 8 194       0.10000000
  1 8 195       0.10000000
  1 8 196       0.10000000
  1 8 197       0.10000000
  1 8 198       0.10000000
  1 8 199       0.10000000
  1 8 200       0.10000000
  1 8 201       0.10000000
  1 8 202       0.10000000
  1 8 203       0.10000000
  1 8 204       0.10000000
  1 8 205       0.10000000
  1 8 206       0.10000000
  1 8 207       0.10000000
  1 8 208       0.10000000
  1 8 209       0.10000000
  1 8 210       0.10000000
  1 8 211       0.10000000
  1 8 212       0.10000000
  1 8 213       0.10000000
  1 8 214       0.10000000
  1 8 215       0.10000000
  1 8 216       0.10000000
  1 8 217       0.10000000
  1 8 218       0.10000000
  1 8 219       0.10000000
  1 8 220       0.10000000
  1 8 221       0.10000000
  1 8 222       0.10000000
  1 8 223       0.10000000
  1 8 224       0.10000000
  1 8 225       0.10000000
  1 8 226       0.10000000
  1 8 227       0.10000000
  1 8 228       0.10000000
  1 8 229       0.10000000
  1 8 230       0.10000000
  1 8 231       0.10000000
  1 8 232       0.10000000
  1 8 233       0.10000000
  1 9 136       0.10000000
  1 9 137       0.10000000
  1 9 138       0.10000000
  1 9 139       0.10000000
  1 9 140       0.10000000
  1 9 141       0.10000000
  1 9 142       0.10000000
  1 9 143       0.10000000
  1 9 144       0.10000000
  1 9 145       0.10000000
  1 9 146       0.10000000
  1 9 147       0.10000000
  1 9 148       0.10000000
  1 9 149       0.10000000
  1 9 150       0.10000000
  1 9 151       0.10000000
  1 9 152       0.10000000
  1 9 153       0.10000000
  1 9 154       0.10000000
  1 9 155       0.10000000
  1 9 156       0.10000000
  1 9 157       0.10000000
  1 9 158       0.10000000
  1 9 159       0.10000000
  1 9 160       0.10000000
  1 9 161       0.10000000
  1 9 162       0.10000000
  1 9 163       0.10000000
  1 9 164       0.10000000
  1 9 165       0.10000000
  1 9 166       0.10000000
  1 9 167       0.10000000
  1 9 168       0.10000000
  1 9 169       0.10000000
  1 9 170       0.10000000
  1 9 171       0.10000000
  1 9 172       0.10000000
  1 9 173       0.10000000
  1 9 174       0.10000000
  1 9 175       0.10000000
  1 9 176       0.10000000
  1 9 177       0.10000000
  1 9 178       0.10000000
  1 9 179       0.10000000
  1 9 180       0.10000000
  1 9 181       0.10000000
  1 9 182       0.10000000
  1 9 183       0.10000000
  1 9 184       0.10000000
  1 9 185       0.10000000
  1 9 186       0.10000000
  1 9 187       0.10000000
  1 9 188       0.10000000
  1 9 189       0.10000000
  1 9 190       0.10000000
  1 9 191       0.10000000
  1 9 192       0.10000000
  1 9 193       0.10000000
  1 9 194       0.10000000
  1 9 195       0.10000000
  1 9 196       0.10000000
  1 9 197       0.10000000
  1 9 198       0.10000000
  1 9 199       0.10000000
  1 9 200       0.10000000
  1 9 201       0.10000000
  1 9 202       0.10000000
  1 9 203       0.10000000
  1 9 204       0.10000000
  1 9 205       0.10000000
  1 9 206       0.10000000
  1 9 207       0.10000000
  1 9 208       0.10000000
  1 9 209       0.10000000
  1 9 210       0.10000000
  1 9 211       0.10000000
  1 9 212       0.10000000
  1 9 213       0.10000000
  1 9 214       0.10000000
  1 9 215       0.10000000
  1 9 216       0.10000000
  1 9 217       0.10000000
  1 9 218       0.10000000
  1 9 219       0.10000000
  1 9 220       0.10000000
  1 9 221       0.10000000
  1 9 222       0.10000000
  1 9 223       0.10000000
  1 9 224       0.10000000
  1 9 225       0.10000000
  1 9 226       0.10000000
  1 9 227       0.10000000
  1 9 228       0.10000000
  1 9 229       0.10000000
  1 9 230       0.10000000
  1 9 231       0.10000000
  1 9 232       0.10000000
  1 9 233       0.10000000
  1 10 135       0.10000000
  1 10 136       0.10000000
  1 10 137       0.10000000
  1 10 138       0.10000000
  1 10 139       0.10000000
  1 10 140       0.10000000
  1 10 141       0.10000000
  1 10 142       0.10000000
  1 10 143       0.10000000
  1 10 144       0.10000000
  1 10 145       0.10000000
  1 10 146       0.10000000
  1 10 147       0.10000000
  1 10 148       0.10000000
  1 10 149       0.10000000
  1 10 150       0.10000000
  1 10 151       0.10000000
  1 10 152       0.10000000
  1 10 153       0.10000000
  1 10 154       0.10000000
  1 10 155       0.10000000
  1 10 156       0.10000000
  1 10 157       0.10000000
  1 10 158       0.10000000
  1 10 159       0.10000000
  1 10 160       0.10000000
  1 10 161       0.10000000
  1 10 162       0.10000000
  1 10 163       0.10000000
  1 10 164       0.10000000
  1 10 165       0.10000000
  1 10 166       0.10000000
  1 10 167       0.10000000
  1 10 168       0.10000000
  1 10 169       0.10000000
  1 10 170       0.10000000
  1 10 171       0.10000000
  1 10 172       0.10000000
  1 10 173       0.10000000
  1 10 174       0.10000000
  1 10 175       0.10000000
  1 10 176       0.10000000
  1 10 177       0.10000000
  1 10 178       0.10000000
  1 10 179       0.10000000
  1 10 180       0.10000000
  1 10 181       0.10000000
  1 10 182       0.10000000
  1 10 183       0.10000000
  1 10 184       0.10000000
  1 10 185       0.10000000
  1 10 186       0.10000000
  1 10 187       0.10000000
  1 10 188       0.10000000
  1 10 189       0.10000000
  1 10 190       0.10000000
  1 10 191       0.10000000
  1 10 192       0.10000000
  1 10 193       0.10000000
  1 10 194       0.10000000
  1 10 195       0.10000000
  1 10 196       0.10000000
  1 10 197       0.10000000
  1 10 198       0.10000000
  1 10 199       0.10000000
  1 10 200       0.10000000
  1 10 201       0.10000000
  1 10 202       0.10000000
  1 10 203       0.10000000
  1 10 204       0.10000000
  1 10 205       0.10000000
  1 10 206       0.10000000
  1 10 207       0.10000000
  1 10 208       0.10000000
  1 10 209       0.10000000
  1 10 210       0.10000000
  1 10 211       0.10000000
  1 10 212       0.10000000
  1 10 213       0.10000000
  1 10 214       0.10000000
  1 10 215       0.10000000
  1 10 216       0.10000000
  1 10 217       0.10000000
  1 10 218       0.10000000
  1 10 219       0.10000000
  1 10 220       0.10000000
  1 10 221       0.10000000
  1 10 222       0.10000000
  1 10 223       0.10000000
  1 10 224       0.10000000
  1 10 225       0.10000000
  1 10 226       0.10000000
  1 10 227       0.10000000
  1 10 228       0.10000000
  1 10 229       0.10000000
  1 10 230       0.10000000
  1 10 231       0.10000000
  1 10 232       0.10000000
  1 10 233       0.10000000
  1 11 134       0.10000000
  1 11 135       0.10000000
  1 11 136       0.10000000
  1 11 137       0.10000000
  1 11 138       0.10000000
  1 11 139       0.10000000
  1 11 140       0.10000000
  1 11 141       0.10000000
  1 11 142       0.10000000
  1 11 143       0.10000000
  1 11 144       0.10000000
  1 11 145       0.10000000
  1 11 146       0.10000000
  1 11 147       0.10000000
  1 11 148       0.10000000
  1 11 149       0.10000000
  1 11 150       0.10000000
  1 11 151       0.10000000
  1 11 152       0.10000000
  1 11 153       0.10000000
  1 11 154       0.10000000
  1 11 155       0.10000000
  1 11 156       0.10000000
  1 11 157       0.10000000
  1 11 158       0.10000000
  1 11 159       0.10000000
  1 11 160       0.10000000
  1 11 161       0.10000000
  1 11 162       0.10000000
  1 11 163       0.10000000
  1 11 164       0.10000000
  1 11 165       0.10000000
  1 11 166       0.10000000
  1 11 167       0.10000000
  1 11 168       0.10000000
  1 11 169       0.10000000
  1 11 170       0.10000000
  1 11 171       0.10000000
  1 11 172       0.10000000
  1 11 173       0.10000000
  1 11 174       0.10000000
  1 11 175       0.10000000
  1 11 176       0.10000000
  1 11 177       0.10000000
  1 11 178       0.10000000
  1 11 179       0.10000000
  1 11 180       0.10000000
  1 11 181       0.10000000
  1 11 182       0.10000000
  1 11 183       0.10000000
  1 11 184       0.10000000
  1 11 185       0.10000000
  1 11 186       0.10000000
  1 11 187       0.10000000
  1 11 188       0.10000000
  1 11 189       0.10000000
  1 11 190       0.10000000
  1 11 191       0.10000000
  1 11 192       0.10000000
  1 11 193       0.10000000
  1 11 194       0.10000000
  1 11 195       0.10000000
  1 11 196       0.10000000
  1 11 197       0.10000000
  1 11 198       0.10000000
  1 11 199       0.10000000
  1 11 200       0.10000000
  1 11 201       0.10000000
  1 11 202       0.10000000
  1 11 203       0.10000000
  1 11 204       0.10000000
  1 11 205       0.10000000
  1 11 206       0.10000000
  1 11 207       0.10000000
  1 11 208       0.10000000
  1 11 209       0.10000000
  1 11 210       0.10000000
  1 11 211       0.10000000
  1 11 212       0.10000000
  1 11 213       0.10000000
  1 11 214       0.10000000
  1 11 215       0.10000000
  1 11 216       0.10000000
  1 11 217       0.10000000
  1 11 218       0.10000000
  1 11 219       0.10000000
  1 11 220       0.10000000
  1 11 221       0.10000000
  1 11 222       0.10000000
  1 11 223       0.10000000
  1 11 224       0.10000000
  1 11 225       0.10000000
  1 11 226       0.10000000
  1 11 227       0.10000000
  1 11 228       0.10000000
  1 11 229       0.10000000
  1 11 230       0.10000000
  1 11 231       0.10000000
  1 11 232       0.10000000
  1 11 233       0.10000000
  1 12 133       0.10000000
  1 12 134       0.10000000
  1 12 135       0.10000000
  1 12 136       0.10000000
  1 12 137       0.10000000
  1 12 138       0.10000000
  1 12 139       0.10000000
  1 12 140       0.10000000
  1 12 141       0.10000000
  1 12 142       0.10000000
  1 12 143       0.10000000
  1 12 144       0.10000000
  1 12 145       0.10000000
  1 12 146       0.10000000
  1 12 147       0.10000000
  1 12 148       0.10000000
  1 12 149       0.10000000
  1 12 150       0.10000000
  1 12 151       0.10000000
  1 12 152       0.10000000
  1 12 153       0.10000000
  1 12 154       0.10000000
  1 12 155       0.10000000
  1 12 156       0.10000000
  1 12 157       0.10000000
  1 12 158       0.10000000
  1 12 159       0.10000000
  1 12 160       0.10000000
  1 12 161       0.10000000
  1 12 162       0.10000000
  1 12 163       0.10000000
  1 12 164       0.10000000
  1 12 165       0.10000000
  1 12 166       0.10000000
  1 12 167       0.10000000
  1 12 168       0.10000000
  1 12 169       0.10000000
  1 12 170       0.10000000
  1 12 171       0.10000000
  1 12 172       0.10000000
  1 12 173       0.10000000
  1 12 174       0.10000000
  1 12 175       0.10000000
  1 12 176       0.10000000
  1 12 177       0.10000000
  1 12 178       0.10000000
  1 12 179       0.10000000
  1 12 180       0.10000000
  1 12 181       0.10000000
  1 12 182       0.10000000
  1 12 183       0.10000000
  1 12 184       0.10000000
  1 12 185       0.10000000
  1 12 186       0.10000000
  1 12 187       0.10000000
  1 12 188       0.10000000
  1 12 189       0.10000000
  1 12 190       0.10000000
  1 12 191       0.10000000
  1 12 192       0.10000000
  1 12 193       0.10000000
  1 12 194       0.10000000
  1 12 195       0.10000000
  1 12 196       0.10000000
  1 12 197       0.10000000
  1 12 198       0.10000000
  1 12 199       0.10000000
  1 12 200       0.10000000
  1 12 201       0.10000000
  1 12 202       0.10000000
  1 12 203       0.10000000
  1 12 204       0.10000000
  1 12 205       0.10000000
  1 12 206       0.10000000
  1 12 207       0.10000000
  1 12 208       0.10000000
  1 12 209       0.10000000
  1 12 210       0.10000000
  1 12 211       0.10000000
  1 12 212       0.10000000
  1 12 213       0.10000000
  1 12 214       0.10000000
  1 12 215       0.10000000
  1 12 216       0.10000000
  1 12 217       0.10000000
  1 12 218       0.10000000
  1 12 219       0.10000000
  1 12 220       0.10000000
  1 12 221       0.10000000
  1 12 222       0.10000000
  1 12 223       0.10000000
  1 12 224       0.10000000
  1 12 225       0.10000000
  1 12 226       0.10000000
  1 12 227       0.10000000
  1 12 228       0.10000000
  1 12 229       0.10000000
  1 12 230       0.10000000
  1 12 231       0.10000000
  1 12 232       0.10000000
  1 12 233       0.10000000
  1 13 131       0.10000000
  1 13 132       0.10000000
  1 13 133       0.10000000
  1 13 134       0.10000000
  1 13 135       0.10000000
  1 13 136       0.10000000
  1 13 137       0.10000000
  1 13 138       0.10000000
  1 13 139       0.10000000
  1 13 140       0.10000000
  1 13 141       0.10000000
  1 13 142       0.10000000
  1 13 143       0.10000000
  1 13 144       0.10000000
  1 13 145       0.10000000
  1 13 146       0.10000000
  1 13 147       0.10000000
  1 13 148       0.10000000
  1 13 149       0.10000000
  1 13 150       0.10000000
  1 13 151       0.10000000
  1 13 152       0.10000000
  1 13 153       0.10000000
  1 13 154       0.10000000
  1 13 155       0.10000000
  1 13 156       0.10000000
  1 13 157       0.10000000
  1 13 158       0.10000000
  1 13 159       0.10000000
  1 13 160       0.10000000
  1 13 161       0.10000000
  1 13 162       0.10000000
  1 13 163       0.10000000
  1 13 164       0.10000000
  1 13 165       0.10000000
  1 13 166       0.10000000
  1 13 167       0.10000000
  1 13 168       0.10000000
  1 13 169       0.10000000
  1 13 170       0.10000000
  1 13 171       0.10000000
  1 13 172       0.10000000
  1 13 173       0.10000000
  1 13 174       0.10000000
  1 13 175       0.10000000
  1 13 176       0.10000000
  1 13 177       0.10000000
  1 13 178       0.10000000
  1 13 179       0.10000000
  1 13 180       0.10000000
  1 13 181       0.10000000
  1 13 182       0.10000000
  1 13 183       0.10000000
  1 13 184       0.10000000
  1 13 185       0.10000000
  1 13 186       0.10000000
  1 13 187       0.10000000
  1 13 188       0.10000000
  1 13 189       0.10000000
  1 13 190       0.10000000
  1 13 191       0.10000000
  1 13 192       0.10000000
  1 13 193       0.10000000
  1 13 194       0.10000000
  1 13 195       0.10000000
  1 13 196       0.10000000
  1 13 197       0.10000000
  1 13 198       0.10000000
  1 13 199       0.10000000
  1 13 200       0.10000000
  1 13 201       0.10000000
  1 13 202       0.10000000
  1 13 203       0.10000000
  1 13 204       0.10000000
  1 13 205       0.10000000
  1 13 206       0.10000000
  1 13 207       0.10000000
  1 13 208       0.10000000
  1 13 209       0.10000000
  1 13 210       0.10000000
  1 13 211       0.10000000
  1 13 212       0.10000000
  1 13 213       0.10000000
  1 13 214       0.10000000
  1 13 215       0.10000000
  1 13 216       0.10000000
  1 13 217       0.10000000
  1 13 218       0.10000000
  1 13 219       0.10000000
  1 13 220       0.10000000
  1 13 221       0.10000000
  1 13 222       0.10000000
  1 13 223       0.10000000
  1 13 224       0.10000000
  1 13 225       0.10000000
  1 13 226       0.10000000
  1 13 227       0.10000000
  1 13 228       0.10000000
  1 13 229       0.10000000
  1 13 230       0.10000000
  1 13 231       0.10000000
  1 13 232       0.10000000
  1 13 233       0.10000000
  1 14 130       0.10000000
  1 14 131       0.10000000
  1 14 132       0.10000000
  1 14 133       0.10000000
  1 14 134       0.10000000
  1 14 135       0.10000000
  1 14 136       0.10000000
  1 14 137       0.10000000
  1 14 138       0.10000000
  1 14 139       0.10000000
  1 14 140       0.10000000
  1 14 141       0.10000000
  1 14 142       0.10000000
  1 14 143       0.10000000
  1 14 144       0.10000000
  1 14 145       0.10000000
  1 14 146       0.10000000
  1 14 147       0.10000000
  1 14 148       0.10000000
  1 14 149       0.10000000
  1 14 150       0.10000000
  1 14 151       0.10000000
  1 14 152       0.10000000
  1 14 153       0.10000000
  1 14 154       0.10000000
  1 14 155       0.10000000
  1 14 156       0.10000000
  1 14 157       0.10000000
  1 14 158       0.10000000
  1 14 159       0.10000000
  1 14 160       0.10000000
  1 14 161       0.10000000