BEGIN options
  SAVE_FLOWS
END options

BEGIN dimensions
  MAXBOUND  16431
END dimensions

BEGIN period  1
  1 3 144       0.83750000
  1 3 145       0.85000000
  1 3 146       0.85749998
  1 3 147       0.86999998
  1 3 148       0.88000002
  1 3 149       0.89499998
  1 3 150       0.90249996
  1 3 151       0.90749998
  1 3 152       0.91999998
  1 3 153       0.93000002
  1 3 154       0.94250002
  1 3 155       0.95000000
  1 3 156       0.95749998
  1 3 157       0.97500000
  1 3 158       0.98249998
  1 3 159       0.99499998
  1 3 160       1.00500002
  1 3 161       1.01250000
  1 3 162       1.02500000
  1 3 163       1.04250002
  1 3 164       1.05000000
  1 3 165       1.06499996
  1 3 166       1.07749996
  1 3 167       1.09499998
  1 3 168       1.10749998
  1 3 169       1.11499996
  1 3 170       1.13249998
  1 3 171       1.15000000
  1 3 172       1.16250000
  1 3 173       1.17500000
  1 3 174       1.18750000
  1 3 175       1.22500000
  1 3 176       1.23750000
  1 3 177       1.24499998
  1 3 178       1.26250000
  1 3 179       1.27500000
  1 3 180       1.29750004
  1 3 181       1.31250000
  1 3 182       1.33000002
  1 3 183       1.35749998
  1 3 184       1.36999998
  1 3 185       1.39750004
  1 3 186       1.41000004
  1 3 187       1.42749996
  1 3 188       1.45249996
  1 3 189       1.46999998
  1 3 190       1.48750000
  1 3 191       1.50749998
  1 3 192       1.52749996
  1 3 193       1.55749998
  1 3 194       1.57749996
  1 3 195       1.59250002
  1 3 196       1.62000008
  1 3 197       1.63250008
  1 3 198       1.66000004
  1 3 199       1.67749996
  1 3 200       1.69500008
  1 3 201       1.72000008
  1 3 202       1.73250008
  1 3 203       1.75499992
  1 3 204       1.77250004
  1 3 205       1.80000000
  1 3 206       1.82500000
  1 3 207       1.83999996
  1 3 208       1.85499992
  1 3 209       1.87000008
  1 3 210       1.88750000
  1 3 211       1.90750008
  1 3 212       1.92000008
  1 3 213       1.92999992
  1 3 214       1.94500008
  1 3 215       1.95499992
  1 3 216       1.97000008
  1 3 217       1.98500004
  1 3 218       1.99500008
  1 3 219       2.00499992
  1 3 220       2.01499996
  1 3 221       2.02000008
  1 3 222       2.03500004
  1 3 223       2.04500008
  1 3 224       2.05750008
  1 3 225       2.06499996
  1 3 226       2.07250004
  1 3 227       2.08750000
  1 3 228       2.09750004
  1 3 229       2.10750008
  1 3 230       2.12250004
  1 3 231       2.12749996
  1 3 232       2.13999996
  1 3 233       2.15000000
  1 4 143       0.80249996
  1 4 144       0.83750000
  1 4 145       0.85000000
  1 4 146       0.86250000
  1 4 147       0.87500000
  1 4 148       0.88249998
  1 4 149       0.89499998
  1 4 150       0.90500002
  1 4 151       0.91250000
  1 4 152       0.92250004
  1 4 153       0.93000002
  1 4 154       0.94250002
  1 4 155       0.95249996
  1 4 156       0.96000004
  1 4 157       0.97500000
  1 4 158       0.98750000
  1 4 159       0.99750004
  1 4 160       1.00749998
  1 4 161       1.01750002
  1 4 162       1.03249998
  1 4 163       1.04499998
  1 4 164       1.05749998
  1 4 165       1.06999998
  1 4 166       1.08000002
  1 4 167       1.09750004
  1 4 168       1.11000004
  1 4 169       1.11999998
  1 4 170       1.13750000
  1 4 171       1.14750004
  1 4 172       1.16750002
  1 4 173       1.18249998
  1 4 174       1.19499998
  1 4 175       1.23249998
  1 4 176       1.23999996
  1 4 177       1.25000000
  1 4 178       1.26250000
  1 4 179       1.28000002
  1 4 180       1.30500002
  1 4 181       1.31999998
  1 4 182       1.33500004
  1 4 183       1.36250000
  1 4 184       1.37500000
  1 4 185       1.40249996
  1 4 186       1.41750002
  1 4 187       1.43500004
  1 4 188       1.46250000
  1 4 189       1.47500000
  1 4 190       1.49750004
  1 4 191       1.51499996
  1 4 192       1.53500004
  1 4 193       1.56499996
  1 4 194       1.58249998
  1 4 195       1.59750004
  1 4 196       1.62250004
  1 4 197       1.63500004
  1 4 198       1.66499996
  1 4 199       1.68250008
  1 4 200       1.70249996
  1 4 201       1.72749996
  1 4 202       1.74500008
  1 4 203       1.76499996
  1 4 204       1.77999992
  1 4 205       1.80499992
  1 4 206       1.83250008
  1 4 207       1.84249992
  1 4 208       1.86000004
  1 4 209       1.87250004
  1 4 210       1.89500008
  1 4 211       1.91000004
  1 4 212       1.92500000
  1 4 213       1.93500004
  1 4 214       1.95000000
  1 4 215       1.96749992
  1 4 216       1.97749996
  1 4 217       1.98999996
  1 4 218       1.99750004
  1 4 219       2.01250000
  1 4 220       2.02250004
  1 4 221       2.02999992
  1 4 222       2.04249992
  1 4 223       2.05249996
  1 4 224       2.06250000
  1 4 225       2.07000008
  1 4 226       2.07999992
  1 4 227       2.09500008
  1 4 228       2.10499992
  1 4 229       2.11499996
  1 4 230       2.12749996
  1 4 231       2.13500004
  1 4 232       2.14750004
  1 4 233       2.15750008
  1 5 142       0.77749996
  1 5 143       0.80500002
  1 5 144       0.83999996
  1 5 145       0.85749998
  1 5 146       0.86999998
  1 5 147       0.88000002
  1 5 148       0.88750000
  1 5 149       0.90000000
  1 5 150       0.90749998
  1 5 151       0.91750002
  1 5 152       0.92500000
  1 5 153       0.93500004
  1 5 154       0.94750004
  1 5 155       0.95500002
  1 5 156       0.96499996
  1 5 157       0.97749996
  1 5 158       0.99250002
  1 5 159       1.00249996
  1 5 160       1.01000004
  1 5 161       1.02250004
  1 5 162       1.03750000
  1 5 163       1.05000000
  1 5 164       1.06000004
  1 5 165       1.07500000
  1 5 166       1.08500004
  1 5 167       1.10249996
  1 5 168       1.11250000
  1 5 169       1.12500000
  1 5 170       1.14750004
  1 5 171       1.15749998
  1 5 172       1.17749996
  1 5 173       1.18750000
  1 5 174       1.20500002
  1 5 175       1.23750000
  1 5 176       1.24750004
  1 5 177       1.26000004
  1 5 178       1.27500000
  1 5 179       1.29250002
  1 5 180       1.31750002
  1 5 181       1.33249998
  1 5 182       1.34750004
  1 5 183       1.37500000
  1 5 184       1.38750000
  1 5 185       1.41499996
  1 5 186       1.43000002
  1 5 187       1.44750004
  1 5 188       1.47749996
  1 5 189       1.48999996
  1 5 190       1.51250000
  1 5 191       1.53000002
  1 5 192       1.55000000
  1 5 193       1.57749996
  1 5 194       1.59499998
  1 5 195       1.61000004
  1 5 196       1.62999992
  1 5 197       1.65000000
  1 5 198       1.67500000
  1 5 199       1.69500008
  1 5 200       1.71499996
  1 5 201       1.74249992
  1 5 202       1.76000004
  1 5 203       1.77500000
  1 5 204       1.80000000
  1 5 205       1.82000008
  1 5 206       1.83999996
  1 5 207       1.85499992
  1 5 208       1.86499996
  1 5 209       1.88750000
  1 5 210       1.90249996
  1 5 211       1.91749992
  1 5 212       1.93250008
  1 5 213       1.93999996
  1 5 214       1.95750008
  1 5 215       1.97250004
  1 5 216       1.98250008
  1 5 217       1.99750004
  1 5 218       2.00499992
  1 5 219       2.01749992
  1 5 220       2.02999992
  1 5 221       2.03500004
  1 5 222       2.05000000
  1 5 223       2.06000004
  1 5 224       2.07000008
  1 5 225       2.07999992
  1 5 226       2.08750000
  1 5 227       2.10000000
  1 5 228       2.11000004
  1 5 229       2.11749992
  1 5 230       2.12999992
  1 5 231       2.13750000
  1 5 232       2.15249996
  1 5 233       2.16499996
  1 6 140       0.67750001
  1 6 141       0.74499998
  1 6 142       0.78249998
  1 6 143       0.80749998
  1 6 144       0.84499998
  1 6 145       0.86250000
  1 6 146       0.87500000
  1 6 147       0.88249998
  1 6 148       0.89250002
  1 6 149       0.90749998
  1 6 150       0.91250000
  1 6 151       0.92250004
  1 6 152       0.93249998
  1 6 153       0.93750000
  1 6 154       0.95000000
  1 6 155       0.96000004
  1 6 156       0.96499996
  1 6 157       0.98000002
  1 6 158       0.99250002
  1 6 159       1.00249996
  1 6 160       1.01250000
  1 6 161       1.02500000
  1 6 162       1.03999996
  1 6 163       1.05000000
  1 6 164       1.06250000
  1 6 165       1.07500000
  1 6 166       1.08750000
  1 6 167       1.10500002
  1 6 168       1.11750002
  1 6 169       1.13000002
  1 6 170       1.14750004
  1 6 171       1.15749998
  1 6 172       1.17749996
  1 6 173       1.19250002
  1 6 174       1.21000004
  1 6 175       1.23750000
  1 6 176       1.25000000
  1 6 177       1.26250000
  1 6 178       1.28000002
  1 6 179       1.30000000
  1 6 180       1.32500000
  1 6 181       1.34499998
  1 6 182       1.35749998
  1 6 183       1.38249998
  1 6 184       1.39499998
  1 6 185       1.41999998
  1 6 186       1.43750000
  1 6 187       1.45749998
  1 6 188       1.48249998
  1 6 189       1.49750004
  1 6 190       1.51999998
  1 6 191       1.53999996
  1 6 192       1.55749998
  1 6 193       1.58750000
  1 6 194       1.61000004
  1 6 195       1.62000008
  1 6 196       1.64750004
  1 6 197       1.66749992
  1 6 198       1.68500004
  1 6 199       1.70750008
  1 6 200       1.72250004
  1 6 201       1.74750004
  1 6 202       1.77000008
  1 6 203       1.78750000
  1 6 204       1.81250000
  1 6 205       1.82500000
  1 6 206       1.85000000
  1 6 207       1.86749992
  1 6 208       1.87749996
  1 6 209       1.89500008
  1 6 210       1.90750008
  1 6 211       1.92250004
  1 6 212       1.93500004
  1 6 213       1.94750004
  1 6 214       1.96499996
  1 6 215       1.97749996
  1 6 216       1.98500004
  1 6 217       2.00000000
  1 6 218       2.00750008
  1 6 219       2.02250004
  1 6 220       2.03250008
  1 6 221       2.04249992
  1 6 222       2.05750008
  1 6 223       2.06499996
  1 6 224       2.07999992
  1 6 225       2.08750000
  1 6 226       2.09500008
  1 6 227       2.11000004
  1 6 228       2.11749992
  1 6 229       2.12250004
  1 6 230       2.13500004
  1 6 231       2.14249992
  1 6 232       2.15750008
  1 6 233       2.17000008
  1 7 139       0.58499999
  1 7 140       0.65250001
  1 7 141       0.74749999
  1 7 142       0.78499999
  1 7 143       0.81000004
  1 7 144       0.84750004
  1 7 145       0.86499996
  1 7 146       0.87500000
  1 7 147       0.88500004
  1 7 148       0.89499998
  1 7 149       0.90749998
  1 7 150       0.91750002
  1 7 151       0.92500000
  1 7 152       0.93750000
  1 7 153       0.94250002
  1 7 154       0.95500002
  1 7 155       0.96250000
  1 7 156       0.96999998
  1 7 157       0.98249998
  1 7 158       0.99250002
  1 7 159       1.00749998
  1 7 160       1.01499996
  1 7 161       1.02500000
  1 7 162       1.04250002
  1 7 163       1.05500002
  1 7 164       1.06499996
  1 7 165       1.07500000
  1 7 166       1.08750000
  1 7 167       1.10500002
  1 7 168       1.11999998
  1 7 169       1.13000002
  1 7 170       1.14750004
  1 7 171       1.15749998
  1 7 172       1.18000002
  1 7 173       1.19499998
  1 7 174       1.21999998
  1 7 175       1.23999996
  1 7 176       1.24750004
  1 7 177       1.26750002
  1 7 178       1.28249998
  1 7 179       1.30249996
  1 7 180       1.33249998
  1 7 181       1.35000000
  1 7 182       1.36250000
  1 7 183       1.38000002
  1 7 184       1.39750004
  1 7 185       1.42500000
  1 7 186       1.44250002
  1 7 187       1.46000004
  1 7 188       1.48750000
  1 7 189       1.50749998
  1 7 190       1.52749996
  1 7 191       1.55249996
  1 7 192       1.56999998
  1 7 193       1.59250002
  1 7 194       1.61000004
  1 7 195       1.62500000
  1 7 196       1.65000000
  1 7 197       1.67000008
  1 7 198       1.69249992
  1 7 199       1.71250000
  1 7 200       1.72500000
  1 7 201       1.75249996
  1 7 202       1.77500000
  1 7 203       1.79249992
  1 7 204       1.81749992
  1 7 205       1.82999992
  1 7 206       1.85499992
  1 7 207       1.87000008
  1 7 208       1.87999992
  1 7 209       1.89750004
  1 7 210       1.91250000
  1 7 211       1.92500000
  1 7 212       1.93500004
  1 7 213       1.94750004
  1 7 214       1.96749992
  1 7 215       1.97999992
  1 7 216       1.98999996
  1 7 217       2.00249996
  1 7 218       2.01000004
  1 7 219       2.02500000
  1 7 220       2.03500004
  1 7 221       2.04500008
  1 7 222       2.06000004
  1 7 223       2.07000008
  1 7 224       2.08500004
  1 7 225       2.09249992
  1 7 226       2.10249996
  1 7 227       2.11499996
  1 7 228       2.12250004
  1 7 229       2.12749996
  1 7 230       2.13500004
  1 7 231       2.14249992
  1 7 232       2.16000004
  1 7 233       2.17250004
  1 8 138       0.45999999
  1 8 139       0.58750000
  1 8 140       0.66250000
  1 8 141       0.75250001
  1 8 142       0.79000001
  1 8 143       0.81499996
  1 8 144       0.85500002
  1 8 145       0.86999998
  1 8 146       0.88249998
  1 8 147       0.89250002
  1 8 148       0.90000000
  1 8 149       0.91499996
  1 8 150       0.92250004
  1 8 151       0.93000002
  1 8 152       0.94250002
  1 8 153       0.95000000
  1 8 154       0.95749998
  1 8 155       0.96999998
  1 8 156       0.97500000
  1 8 157       0.98750000
  1 8 158       0.99499998
  1 8 159       1.01250000
  1 8 160       1.01999998
  1 8 161       1.03249998
  1 8 162       1.04750004
  1 8 163       1.06250000
  1 8 164       1.07500000
  1 8 165       1.08249998
  1 8 166       1.09750004
  1 8 167       1.11250000
  1 8 168       1.12500000
  1 8 169       1.13750000
  1 8 170       1.15500002
  1 8 171       1.16250000
  1 8 172       1.18500004
  1 8 173       1.20749998
  1 8 174       1.23249998
  1 8 175       1.24250002
  1 8 176       1.25000000
  1 8 177       1.27250004
  1 8 178       1.29250002
  1 8 179       1.31499996
  1 8 180       1.33750000
  1 8 181       1.35749998
  1 8 182       1.36750002
  1 8 183       1.39750004
  1 8 184       1.41750002
  1 8 185       1.43750000
  1 8 186       1.45749998
  1 8 187       1.47250004
  1 8 188       1.50000000
  1 8 189       1.51999998
  1 8 190       1.53500004
  1 8 191       1.56250000
  1 8 192       1.58249998
  1 8 193       1.60249996
  1 8 194       1.62250004
  1 8 195       1.63500004
  1 8 196       1.66250000
  1 8 197       1.68250008
  1 8 198       1.70249996
  1 8 199       1.72250004
  1 8 200       1.73750000
  1 8 201       1.76749992
  1 8 202       1.78999996
  1 8 203       1.80499992
  1 8 204       1.82500000
  1 8 205       1.83750000
  1 8 206       1.86250000
  1 8 207       1.87999992
  1 8 208       1.88999996
  1 8 209       1.91000004
  1 8 210       1.92250004
  1 8 211       1.93500004
  1 8 212       1.94500008
  1 8 213       1.96000004
  1 8 214       1.97500000
  1 8 215       1.98750000
  1 8 216       1.99750004
  1 8 217       2.01000004
  1 8 218       2.01499996
  1 8 219       2.02999992
  1 8 220       2.03999996
  1 8 221       2.05000000
  1 8 222       2.06499996
  1 8 223       2.07250004
  1 8 224       2.08750000
  1 8 225       2.09500008
  1 8 226       2.10750008
  1 8 227       2.12000008
  1 8 228       2.12999992
  1 8 229       2.13500004
  1 8 230       2.14249992
  1 8 231       2.15249996
  1 8 232       2.16749992
  1 8 233       2.17999992
  1 9 136       0.34749999
  1 9 137       0.40999999
  1 9 138       0.45999999
  1 9 139       0.59250002
  1 9 140       0.66500001
  1 9 141       0.75500002
  1 9 142       0.79250002
  1 9 143       0.81999998
  1 9 144       0.85500002
  1 9 145       0.87250004
  1 9 146       0.88500004
  1 9 147       0.89499998
  1 9 148       0.90249996
  1 9 149       0.91499996
  1 9 150       0.92500000
  1 9 151       0.93249998
  1 9 152       0.94250002
  1 9 153       0.95000000
  1 9 154       0.96250000
  1 9 155       0.97250004
  1 9 156       0.97749996
  1 9 157       0.99250002
  1 9 158       1.00000000
  1 9 159       1.01750002
  1 9 160       1.02500000
  1 9 161       1.03750000
  1 9 162       1.05249996
  1 9 163       1.06499996
  1 9 164       1.07749996
  1 9 165       1.08750000
  1 9 166       1.10000000
  1 9 167       1.11750002
  1 9 168       1.13249998
  1 9 169       1.14250002
  1 9 170       1.16250000
  1 9 171       1.17749996
  1 9 172       1.19250002
  1 9 173       1.22749996
  1 9 174       1.23750000
  1 9 175       1.24499998
  1 9 176       1.26250000
  1 9 177       1.28000002
  1 9 178       1.30000000
  1 9 179       1.31999998
  1 9 180       1.33999996
  1 9 181       1.36250000
  1 9 182       1.37250004
  1 9 183       1.40249996
  1 9 184       1.41999998
  1 9 185       1.44499998
  1 9 186       1.46499996
  1 9 187       1.48249998
  1 9 188       1.51000004
  1 9 189       1.53249998
  1 9 190       1.54750004
  1 9 191       1.56999998
  1 9 192       1.58249998
  1 9 193       1.61000004
  1 9 194       1.62749996
  1 9 195       1.64249992
  1 9 196       1.67250004
  1 9 197       1.69249992
  1 9 198       1.71000004
  1 9 199       1.73250008
  1 9 200       1.74500008
  1 9 201       1.77749996
  1 9 202       1.79750004
  1 9 203       1.81499996
  1 9 204       1.83250008
  1 9 205       1.84500008
  1 9 206       1.87000008
  1 9 207       1.88500004
  1 9 208       1.89500008
  1 9 209       1.91499996
  1 9 210       1.92250004
  1 9 211       1.93999996
  1 9 212       1.95499992
  1 9 213       1.96499996
  1 9 214       1.98500004
  1 9 215       1.99249992
  1 9 216       2.00249996
  1 9 217       2.01499996
  1 9 218       2.02000008
  1 9 219       2.03500004
  1 9 220       2.04500008
  1 9 221       2.05249996
  1 9 222       2.06499996
  1 9 223       2.07500000
  1 9 224       2.08999996
  1 9 225       2.10000000
  1 9 226       2.11000004
  1 9 227       2.12500000
  1 9 228       2.12999992
  1 9 229       2.13999996
  1 9 230       2.14750004
  1 9 231       2.16000004
  1 9 232       2.17250004
  1 9 233       2.18500004
  1 10 135       0.29250000
  1 10 136       0.32750001
  1 10 137       0.39749999
  1 10 138       0.45999999
  1 10 139       0.59000001
  1 10 140       0.65999999
  1 10 141       0.75500002
  1 10 142       0.79749999
  1 10 143       0.82500000
  1 10 144       0.86250000
  1 10 145       0.87250004
  1 10 146       0.88999996
  1 10 147       0.90000000
  1 10 148       0.90749998
  1 10 149       0.91999998
  1 10 150       0.93249998
  1 10 151       0.93999996
  1 10 152       0.95000000
  1 10 153       0.95500002
  1 10 154       0.96750002
  1 10 155       0.97749996
  1 10 156       0.98500004
  1 10 157       1.00000000
  1 10 158       1.00500002
  1 10 159       1.02250004
  1 10 160       1.03000002
  1 10 161       1.03999996
  1 10 162       1.05500002
  1 10 163       1.06499996
  1 10 164       1.08000002
  1 10 165       1.09499998
  1 10 166       1.11000004
  1 10 167       1.12500000
  1 10 168       1.13999996
  1 10 169       1.14499998
  1 10 170       1.16750002
  1 10 171       1.18750000
  1 10 172       1.20249996
  1 10 173       1.23500004
  1 10 174       1.23999996
  1 10 175       1.25749998
  1 10 176       1.26999998
  1 10 177       1.28999996
  1 10 178       1.31000004
  1 10 179       1.33000002
  1 10 180       1.34750004
  1 10 181       1.36750002
  1 10 182       1.38249998
  1 10 183       1.41000004
  1 10 184       1.43000002
  1 10 185       1.45000000
  1 10 186       1.47250004
  1 10 187       1.48750000
  1 10 188       1.51750002
  1 10 189       1.53999996
  1 10 190       1.55749998
  1 10 191       1.58249998
  1 10 192       1.59499998
  1 10 193       1.62250004
  1 10 194       1.64249992
  1 10 195       1.65750008
  1 10 196       1.68750000
  1 10 197       1.70750008
  1 10 198       1.72500000
  1 10 199       1.73999996
  1 10 200       1.75750008
  1 10 201       1.78500004
  1 10 202       1.80750008
  1 10 203       1.82250004
  1 10 204       1.84500008
  1 10 205       1.85499992
  1 10 206       1.87749996
  1 10 207       1.89500008
  1 10 208       1.90499992
  1 10 209       1.92500000
  1 10 210       1.93500004
  1 10 211       1.94750004
  1 10 212       1.95750008
  1 10 213       1.97250004
  1 10 214       1.98750000
  1 10 215       1.99750004
  1 10 216       2.00750008
  1 10 217       2.01749992
  1 10 218       2.02749996
  1 10 219       2.03999996
  1 10 220       2.05249996
  1 10 221       2.06000004
  1 10 222       2.07250004
  1 10 223       2.07999992
  1 10 224       2.09500008
  1 10 225       2.10249996
  1 10 226       2.11250000
  1 10 227       2.12500000
  1 10 228       2.13250008
  1 10 229       2.14500008
  1 10 230       2.15499992
  1 10 231       2.16499996
  1 10 232       2.17500000
  1 10 233       2.18750000
  1 11 134       0.22000000
  1 11 135       0.27750001
  1 11 136       0.33499999
  1 11 137       0.39499998
  1 11 138       0.45749998
  1 11 139       0.58750000
  1 11 140       0.65500002
  1 11 141       0.75749998
  1 11 142       0.80000000
  1 11 143       0.83000002
  1 11 144       0.86250000
  1 11 145       0.87500000
  1 11 146       0.89499998
  1 11 147       0.90500002
  1 11 148       0.91250000
  1 11 149       0.92500000
  1 11 150       0.93500004
  1 11 151       0.94250002
  1 11 152       0.95000000
  1 11 153       0.96000004
  1 11 154       0.96999998
  1 11 155       0.98000002
  1 11 156       0.98750000
  1 11 157       1.00249996
  1 11 158       1.01499996
  1 11 159       1.02500000
  1 11 160       1.03750000
  1 11 161       1.04750004
  1 11 162       1.06250000
  1 11 163       1.07250004
  1 11 164       1.08249998
  1 11 165       1.10000000
  1 11 166       1.11250000
  1 11 167       1.12500000
  1 11 168       1.14499998
  1 11 169       1.15000000
  1 11 170       1.16999998
  1 11 171       1.18750000
  1 11 172       1.21000004
  1 11 173       1.23750000
  1 11 174       1.24250002
  1 11 175       1.26250000
  1 11 176       1.28000002
  1 11 177       1.29499998
  1 11 178       1.31750002
  1 11 179       1.33750000
  1 11 180       1.35749998
  1 11 181       1.37500000
  1 11 182       1.39250002
  1 11 183       1.41999998
  1 11 184       1.43750000
  1 11 185       1.46000004
  1 11 186       1.48000002
  1 11 187       1.49750004
  1 11 188       1.52749996
  1 11 189       1.54499998
  1 11 190       1.56250000
  1 11 191       1.58750000
  1 11 192       1.60249996
  1 11 193       1.62749996
  1 11 194       1.64750004
  1 11 195       1.66749992
  1 11 196       1.69750004
  1 11 197       1.71749992
  1 11 198       1.73500004
  1 11 199       1.75000000
  1 11 200       1.77000008
  1 11 201       1.79750004
  1 11 202       1.82000008
  1 11 203       1.83750000
  1 11 204       1.85750008
  1 11 205       1.86749992
  1 11 206       1.88750000
  1 11 207       1.90249996
  1 11 208       1.91250000
  1 11 209       1.93500004
  1 11 210       1.94249992
  1 11 211       1.95750008
  1 11 212       1.96749992
  1 11 213       1.97749996
  1 11 214       1.99500008
  1 11 215       2.00750008
  1 11 216       2.01749992
  1 11 217       2.02749996
  1 11 218       2.03750000
  1 11 219       2.05249996
  1 11 220       2.06000004
  1 11 221       2.06749992
  1 11 222       2.08250008
  1 11 223       2.08750000
  1 11 224       2.10000000
  1 11 225       2.11000004
  1 11 226       2.11749992
  1 11 227       2.13250008
  1 11 228       2.13750000
  1 11 229       2.15249996
  1 11 230       2.16000004
  1 11 231       2.17250004
  1 11 232       2.17999992
  1 11 233       2.19500008
  1 12 133       0.17250000
  1 12 134       0.23000000
  1 12 135       0.28750000
  1 12 136       0.34500000
  1 12 137       0.39499998
  1 12 138       0.45500002
  1 12 139       0.57500000
  1 12 140       0.65000000
  1 12 141       0.75749998
  1 12 142       0.80249996
  1 12 143       0.83249998
  1 12 144       0.86750002
  1 12 145       0.88000002
  1 12 146       0.89750004
  1 12 147       0.90749998
  1 12 148       0.91999998
  1 12 149       0.93000002
  1 12 150       0.94250002
  1 12 151       0.94499998
  1 12 152       0.95749998
  1 12 153       0.96750002
  1 12 154       0.97500000
  1 12 155       0.98999996
  1 12 156       0.99250002
  1 12 157       1.00500002
  1 12 158       1.01750002
  1 12 159       1.02749996
  1 12 160       1.04250002
  1 12 161       1.05500002
  1 12 162       1.06499996
  1 12 163       1.07749996
  1 12 164       1.08999996
  1 12 165       1.10500002
  1 12 166       1.11750002
  1 12 167       1.13000002
  1 12 168       1.15000000
  1 12 169       1.15500002
  1 12 170       1.17500000
  1 12 171       1.19250002
  1 12 172       1.22250004
  1 12 173       1.23500004
  1 12 174       1.24499998
  1 12 175       1.26499996
  1 12 176       1.28249998
  1 12 177       1.30000000
  1 12 178       1.32500000
  1 12 179       1.34499998
  1 12 180       1.36750002
  1 12 181       1.38500004
  1 12 182       1.40000000
  1 12 183       1.42749996
  1 12 184       1.45000000
  1 12 185       1.46999998
  1 12 186       1.48750000
  1 12 187       1.50000000
  1 12 188       1.53000002
  1 12 189       1.55000000
  1 12 190       1.56750002
  1 12 191       1.59250002
  1 12 192       1.60750008
  1 12 193       1.63250008
  1 12 194       1.65499992
  1 12 195       1.67250004
  1 12 196       1.70249996
  1 12 197       1.71499996
  1 12 198       1.74249992
  1 12 199       1.75750008
  1 12 200       1.77500000
  1 12 201       1.80249996
  1 12 202       1.82250004
  1 12 203       1.83999996
  1 12 204       1.85499992
  1 12 205       1.87250004
  1 12 206       1.88999996
  1 12 207       1.90750008
  1 12 208       1.92000008
  1 12 209       1.93999996
  1 12 210       1.95000000
  1 12 211       1.96499996
  1 12 212       1.97749996
  1 12 213       1.98750000
  1 12 214       2.00249996
  1 12 215       2.00750008
  1 12 216       2.02000008
  1 12 217       2.02999992
  1 12 218       2.04249992
  1 12 219       2.05499992
  1 12 220       2.06499996
  1 12 221       2.07250004
  1 12 222       2.08250008
  1 12 223       2.09500008
  1 12 224       2.10750008
  1 12 225       2.11499996
  1 12 226       2.12250004
  1 12 227       2.13500004
  1 12 228       2.13999996
  1 12 229       2.15750008
  1 12 230       2.16499996
  1 12 231       2.17250004
  1 12 232       2.18500004
  1 12 233       2.19750004
  1 13 131       0.03750000
  1 13 132       0.09500000
  1 13 133       0.15000000
  1 13 134       0.20500000
  1 13 135       0.25999999
  1 13 136       0.32750001
  1 13 137       0.39749999
  1 13 138       0.45500002
  1 13 139       0.57249999
  1 13 140       0.64499998
  1 13 141       0.75999999
  1 13 142       0.81250000
  1 13 143       0.84499998
  1 13 144       0.86999998
  1 13 145       0.88750000
  1 13 146       0.90000000
  1 13 147       0.91250000
  1 13 148       0.92250004
  1 13 149       0.93249998
  1 13 150       0.94499998
  1 13 151       0.95000000
  1 13 152       0.95749998
  1 13 153       0.96750002
  1 13 154       0.98000002
  1 13 155       0.99250002
  1 13 156       0.99499998
  1 13 157       1.00749998
  1 13 158       1.01999998
  1 13 159       1.03249998
  1 13 160       1.04750004
  1 13 161       1.05500002
  1 13 162       1.06999998
  1 13 163       1.08249998
  1 13 164       1.09499998
  1 13 165       1.11000004
  1 13 166       1.12500000
  1 13 167       1.13750000
  1 13 168       1.15500002
  1 13 169       1.16750002
  1 13 170       1.18500004
  1 13 171       1.20000000
  1 13 172       1.23000002
  1 13 173       1.23750000
  1 13 174       1.24750004
  1 13 175       1.27250004
  1 13 176       1.28999996
  1 13 177       1.30749998
  1 13 178       1.33249998
  1 13 179       1.34499998
  1 13 180       1.37250004
  1 13 181       1.39250002
  1 13 182       1.40749998
  1 13 183       1.43750000
  1 13 184       1.45749998
  1 13 185       1.48000002
  1 13 186       1.49499998
  1 13 187       1.51000004
  1 13 188       1.53750000
  1 13 189       1.55749998
  1 13 190       1.57749996
  1 13 191       1.60000000
  1 13 192       1.61250000
  1 13 193       1.64249992
  1 13 194       1.66250000
  1 13 195       1.67749996
  1 13 196       1.70750008
  1 13 197       1.72000008
  1 13 198       1.74750004
  1 13 199       1.76250000
  1 13 200       1.77999992
  1 13 201       1.80750008
  1 13 202       1.82999992
  1 13 203       1.84500008
  1 13 204       1.85750008
  1 13 205       1.87500000
  1 13 206       1.89500008
  1 13 207       1.91000004
  1 13 208       1.92250004
  1 13 209       1.94500008
  1 13 210       1.95750008
  1 13 211       1.97749996
  1 13 212       1.98750000
  1 13 213       1.99750004
  1 13 214       2.01250000
  1 13 215       2.01499996
  1 13 216       2.02999992
  1 13 217       2.03750000
  1 13 218       2.04500008
  1 13 219       2.06250000
  1 13 220       2.07000008
  1 13 221       2.07999992
  1 13 222       2.08999996
  1 13 223       2.10000000
  1 13 224       2.11250000
  1 13 225       2.12000008
  1 13 226       2.12749996
  1 13 227       2.13999996
  1 13 228       2.14750004
  1 13 229       2.16000004
  1 13 230       2.17000008
  1 13 231       2.17999992
  1 13 232       2.19500008
  1 13 233       2.20249996
  1 14 130      -0.05750000
  1 14 131      -0.02250000
  1 14 132       0.03500000
  1 14 133       0.10000000
  1 14 134       0.16500000
  1 14 135       0.19000000
  1 14 136       0.34500000
  1 14 137       0.41750002
  1 14 138       0.45250001
  1 14 139       0.56750002
  1 14 140       0.67500000
  1 14 141       0.75749998
  1 14 142       0.81750002
  1 14 143       0.83500004
  1 14 144       0.87250004
  1 14 145       0.88999996
  1 14 146       0.90249996
  1 14 147       0.91499996
  1 14 148       0.92500000
  1 14 149       0.93500004
  1 14 150       0.94250002
  1 14 151       0.95000000
  1 14 152       0.96000004
  1 14 153       0.96999998
  1 14 154       0.98249998
  1 14 155       0.99499998
  1 14 156       0.99750004
  1 14 157       1.01000004
  1 14 158       1.02250004
  1 14 159       1.03500004
  1 14 160       1.04750004
  1 14 161       1.05500002