BEGIN options
  SAVE_FLOWS
END options

BEGIN dimensions
  MAXBOUND  110
END dimensions

BEGIN period  1
  2 175 49     130.34318264       0.00300000     128.84318264
  2 175 50     128.55564820       0.00300000     127.05564820
  2 175 51     126.25376970       0.00300000     124.75376970
  2 175 52     123.98103816       0.00300000     122.48103816
  2 175 53     121.74157339       0.00300000     120.24157339
  2 175 54     119.48306495       0.00300000     117.98306495
  2 175 55     117.04096941       0.00300000     115.54096941
  2 175 56     115.11227878       0.00300000     113.61227878
  2 174 56     113.36642823       0.00300000     111.86642823
  2 173 56     111.13918009       0.00300000     109.63918009
  2 172 56     109.29873741       0.00300000     107.79873741
  2 172 57     108.13255142       0.00300000     106.63255142
  2 171 57     106.14088889       0.00300000     104.64088889
  2 171 58     103.45378406       0.00300000     101.95378406
  2 171 59     101.25265770       0.00300000      99.75265770
  2 171 60      99.06293666       0.00300000      97.56293666
  2 171 61      96.87120488       0.00300000      95.37120488
  2 171 62      95.73925211       0.00300000      94.23925211
  2 170 62      94.64593024       0.00300000      93.14593024
  2 170 63      92.50152264       0.00300000      91.00152264
  2 170 64      90.29573320       0.00300000      88.79573320
  2 170 65      87.91159103       0.00300000      86.41159103
  2 170 66      86.51589999       0.00300000      85.01589999
  2 169 66      85.09615100       0.00300000      83.59615100
  2 169 67      83.41946014       0.00300000      81.91946014
  2 168 67      81.97395986       0.00300000      80.47395986
  2 167 68      78.91855338       0.00300000      77.41855338
  5 162 76      58.76814914       0.00300000      57.26814914
  5 162 77      58.16482503       0.00300000      56.66482503
  2 161 77      57.36494086       0.00300000      55.86494086
  5 161 78      56.07452117       0.00300000      54.57452117
  2 160 79      54.65346955       0.00300000      53.15346955
  2 160 80      53.71687104       0.00300000      52.21687104
  2 159 80      52.75890615       0.00300000      51.25890615
  2 159 81      52.08433329       0.00300000      50.58433329
  2 158 81      51.26926991       0.00300000      49.76926991
  2 158 82      50.40986412       0.00300000      48.90986412
  2 157 82      49.70742241       0.00300000      48.20742241
  2 157 83      48.74050448       0.00300000      47.24050448
  2 156 83      48.02121017       0.00300000      46.52121017
  2 156 84      47.18616102       0.00300000      45.68616102
  2 155 84      46.39497314       0.00300000      44.89497314
  2 155 85      45.52376134       0.00300000      44.02376134
  2 155 86      44.77042217       0.00300000      43.27042217
  2 154 86      44.09445270       0.00300000      42.59445270
  2 154 87      42.84765379       0.00300000      41.34765379
  2 154 88      41.55062157       0.00300000      40.05062157
  2 153 88      40.79249302       0.00300000      39.29249302
  2 153 89      40.03216069       0.00300000      38.53216069
  2 152 89      39.15191339       0.00300000      37.65191339
  2 152 90      38.27568828       0.00300000      36.77568828
  2 152 91      37.47531116       0.00300000      35.97531116
  2 151 91      36.85445197       0.00300000      35.35445197
  2 151 92      35.72753190       0.00300000      34.22753190
  2 150 92      35.00687994       0.00300000      33.50687994
  2 150 93      34.31505348       0.00300000      32.81505348
  2 150 94      33.13632886       0.00300000      31.63632886
  2 149 94      31.92331491       0.00300000      30.42331491
  2 148 94      30.95574965       0.00300000      29.45574965
  2 148 95      30.35664604       0.00300000      28.85664604
  2 147 95      29.52387840       0.00300000      28.02387840
  2 146 95      28.44407135       0.00300000      26.94407135
  2 146 96      26.24966781       0.00300000      24.74966781
  2 146 97      25.30813191       0.00300000      23.80813191
  2 146 98      24.70905315       0.00300000      23.20905315
  2 147 98      24.22146638       0.00300000      22.72146638
  2 147 99      23.42774567       0.00300000      21.92774567
  2 147 100      22.71675424       0.00300000      21.21675424
  2 146 100      22.17562731       0.00300000      20.67562731
  2 146 101      21.62807406       0.00300000      20.12807406
  2 145 101      20.88962866       0.00300000      19.38962866
  2 144 101      20.28886968       0.00300000      18.78886968
  2 144 102      19.77801088       0.00300000      18.27801088
  2 143 102      19.18525972       0.00300000      17.68525972
  2 143 103      18.47112037       0.00300000      16.97112037
  2 143 104      17.91531480       0.00300000      16.41531480
  2 142 104      17.49520348       0.00300000      15.99520348
  2 142 105      16.74559296       0.00300000      15.24559296
  2 142 106      16.29483306       0.00300000      14.79483306
  2 143 106      15.87105712       0.00300000      14.37105712
  2 143 107      15.06857641       0.00300000      13.56857641
  2 143 108      14.24644037       0.00300000      12.74644037
  2 143 109      13.68060835       0.00300000      12.18060835
  2 142 109      13.25497865       0.00300000      11.75497865
  2 142 110      12.57218990       0.00300000      11.07218990
  2 142 111      11.74962255       0.00300000      10.24962255
  2 142 112      10.92085752       0.00300000       9.42085752
  2 142 113      10.08077601       0.00300000       8.58077601
  2 142 114       9.24096706       0.00300000       7.74096706
  2 142 115       7.77220021       0.00300000       6.27220021
  2 142 116       7.31766526       0.00300000       5.81766526
  2 142 117       6.85641187       0.00300000       5.35641187
  2 142 118       6.36773991       0.00300000       4.86773991
  2 142 119       6.03588579       0.00300000       4.53588579
  2 143 119       5.78503517       0.00300000       4.28503517
  2 143 120       5.38449926       0.00300000       3.88449926
  2 143 121       4.92631146       0.00300000       3.42631146
  2 143 122       4.46824877       0.00300000       2.96824877
  2 143 123       4.00544882       0.00300000       2.50544882
  2 143 124       3.58045515       0.00300000       2.08045515
  2 142 124       3.34016785       0.00300000       1.84016785
  2 142 125       3.04757164       0.00300000       1.54757164
  2 142 126       2.55910784       0.00300000       1.05910784
  2 142 127       2.23361545       0.00300000       0.73361545
  2 141 127       1.99843380       0.00300000       0.49843380
  2 141 128       1.60934289       0.00300000       0.10934289
  2 141 129       1.14125496       0.00300000      -0.35874504
  2 141 130       0.71058926       0.00300000      -0.78941074
  2 140 130       0.46653637       0.00300000      -1.03346363
  2 140 131       0.25888115       0.00300000      -1.24111885
END period  1

