BEGIN options
  SAVE_FLOWS
END options

BEGIN dimensions
  MAXBOUND  104
END dimensions

BEGIN period  1
  1 175 49     130.34318264
  1 175 50     128.55564820
  1 175 51     126.25376970
  1 175 52     123.98103816
  1 174 56     113.36642823
  1 173 56     111.13918009
  1 172 56     109.29873741
  1 172 57     108.13255142
  1 171 57     106.14088889
  1 171 58     103.45378406
  1 171 59     101.25265770
  1 171 60      99.06293666
  1 171 61      96.87120488
  1 171 62      95.73925211
  3 170 62      94.64593024
  1 170 63      92.50152264
  1 170 64      90.29573320
  1 170 65      87.91159103
  1 170 66      86.51589999
  1 169 66      85.09615100
  1 169 67      83.41946014
  1 168 67      81.97395986
  3 162 76      58.76814914
  3 162 77      58.16482503
  1 161 77      57.36494086
  1 161 78      56.07452117
  1 160 80      53.71687104
  1 159 80      52.75890615
  1 159 81      52.08433329
  3 158 81      51.26926991
  1 158 82      50.40986412
  1 157 82      49.70742241
  1 157 83      48.74050448
  1 156 83      48.02121017
  1 156 84      47.18616102
  1 155 84      46.39497314
  1 155 85      45.52376134
  1 155 86      44.77042217
  1 154 86      44.09445270
  1 154 87      42.84765379
  1 154 88      41.55062157
  1 153 88      40.79249302
  1 153 89      40.03216069
  1 152 89      39.15191339
  1 152 90      38.27568828
  1 152 91      37.47531116
  1 151 91      36.85445197
  1 151 92      35.72753190
  3 150 92      35.00687994
  1 150 93      34.31505348
  1 150 94      33.13632886
  1 149 94      31.92331491
  1 148 94      30.95574965
  1 148 95      30.35664604
  1 147 95      29.52387840
  1 146 95      28.44407135
  1 146 96      26.20150394
  1 146 97      25.15926901
  2 146 98      24.49611766
  1 147 98      23.95638257
  1 147 99      23.07777195
  1 147 100      22.29073865
  1 146 100      21.69173718
  1 146 101      21.08562209
  2 145 101      20.26819857
  1 144 101      19.60318730
  1 144 102      19.03769119
  1 143 102      18.38154419
  1 143 103      17.59102629
  1 143 104      16.97577627
  1 142 104      16.51073326
  1 142 105      15.68095050
  1 142 106      15.18198098
  1 143 106      14.71288141
  1 143 107      13.82457388
  1 143 108      12.91450886
  1 143 109      12.28816004
  1 142 109      11.81700845
  1 142 110      11.06119417
  1 142 111      10.15065170
  1 142 112       9.23324869
  1 142 113       8.30331889
  1 142 114       7.37369081
  1 142 115       5.82987104
  1 142 116       5.49040823
  1 142 117       5.14592785
  1 142 118       4.78097031
  1 142 119       4.53312989
  1 143 119       4.34578576
  1 143 120       4.04665135
  1 143 121       3.70446045
  1 143 122       3.36236300
  1 143 123       3.01672760
  1 143 124       2.69932726
  1 142 124       2.51987219
  1 142 125       2.30135097
  1 142 126       1.93654890
  1 142 127       1.69345964
  1 141 127       1.51781765
  1 141 128       1.22723077
  1 141 129       0.87764611
  1 141 130       0.55600970
  1 140 130       0.37374235
  1 140 131       0.21865807
END period  1

