BEGIN options
  SAVE_FLOWS
END options

BEGIN dimensions
  MAXBOUND  113
END dimensions

BEGIN period  1
  2 175 49     132.00000000       0.00300000     130.50000000
  2 175 50     128.99896796       0.00300000     127.49896796
  2 175 51     124.91569499       0.00300000     123.41569499
  2 175 52     120.87088318       0.00300000     119.37088318
  2 175 53     116.89447448       0.00300000     115.39447448
  2 175 54     112.87872983       0.00300000     111.37872983
  2 175 55     108.54139973       0.00300000     107.04139973
  2 175 56     104.76000000       0.00300000     103.26000000
  2 174 56     103.25152201       0.00300000     101.75152201
  2 173 56     101.52631122       0.00300000     100.02631122
  2 172 56     100.36617212       0.00300000      98.86617212
  2 172 57      99.44982702       0.00300000      97.94982702
  2 171 57      97.76000226       0.00300000      96.26000226
  2 171 58      95.81000000       0.00300000      94.31000000
  2 171 59      93.49293537       0.00300000      91.99293537
  2 171 60      91.18996219       0.00300000      89.68996219
  2 171 61      88.88265061       0.00300000      87.38265061
  2 171 62      86.72248272       0.00300000      85.22248272
  2 170 62      85.57146449       0.00300000      84.07146449
  2 170 63      84.28000000       0.00300000      82.78000000
  2 170 64      82.74365543       0.00300000      81.24365543
  2 170 65      81.08779958       0.00300000      79.58779958
  2 170 66      79.91926541       0.00300000      78.41926541
  2 169 66      78.94784084       0.00300000      77.44784084
  2 169 67      77.79853732       0.00300000      76.29853732
  2 168 67      76.78000000       0.00300000      75.28000000
  2 167 68      74.83159939       0.00300000      73.33159939
  5 164 77      60.76185817       0.00300000      59.26185817
  2 162 76      59.17185904       0.00300000      57.67185904
  5 162 77      58.59208830       0.00300000      57.09208830
  2 161 77      57.64090110       0.00300000      56.14090110
  2 161 78      56.49194252       0.00300000      54.99194252
  2 160 79      54.96251160       0.00300000      53.46251160
  2 160 80      54.13200916       0.00300000      52.63200916
  2 159 80      53.24351402       0.00300000      51.74351402
  2 159 81      52.58204975       0.00300000      51.08204975
  2 158 81      51.76364118       0.00300000      50.26364118
  2 158 82      50.91777010       0.00300000      49.41777010
  2 157 82      50.23351577       0.00300000      48.73351577
  2 157 83      49.30877487       0.00300000      47.80877487
  2 156 83      48.61875140       0.00300000      47.11875140
  2 156 84      47.82000000       0.00300000      46.32000000
  2 155 84      46.64002675       0.00300000      45.14002675
  2 155 85      45.52600437       0.00300000      44.02600437
  2 155 86      44.18195173       0.00300000      42.68195173
  2 154 86      43.17131545       0.00300000      41.67131545
  2 154 87      41.88935350       0.00300000      40.38935350
  2 155 87      40.97669307       0.00300000      39.47669307
  2 154 88      39.50000000       0.00300000      38.00000000
  2 154 89      38.82963970       0.00300000      37.32963970
  2 153 89      38.11084777       0.00300000      36.61084777
  2 152 89      37.42951370       0.00300000      35.92951370
  2 152 90      36.81109392       0.00300000      35.31109392
  2 152 91      36.01685617       0.00300000      34.51685617
  2 151 91      35.49455783       0.00300000      33.99455783
  2 151 92      34.58409900       0.00300000      33.08409900
  2 151 93      33.89917178       0.00300000      32.39917178
  2 150 93      33.42022253       0.00300000      31.92022253
  2 150 94      32.42823324       0.00300000      30.92823324
  2 149 94      31.34087199       0.00300000      29.84087199
  2 149 95      30.84870538       0.00300000      29.34870538
  2 148 94      30.74798750       0.00300000      29.24798750
  2 148 95      30.24756287       0.00300000      28.74756287
  2 147 95      29.35567749       0.00300000      27.85567749
  2 146 95      28.54471806       0.00300000      27.04471806
  2 146 96      27.70000000       0.00300000      26.20000000
  2 146 97      26.37093789       0.00300000      24.87093789
  2 146 98      25.54773192       0.00300000      24.04773192
  2 147 98      24.84531201       0.00300000      23.34531201
  2 147 99      23.69224068       0.00300000      22.19224068
  2 147 100      22.57292628       0.00300000      21.07292628
  2 146 100      21.82112598       0.00300000      20.32112598
  2 146 101      21.05048706       0.00300000      19.55048706
  2 145 101      19.88000000       0.00300000      18.38000000
  2 144 101      19.84093447       0.00300000      18.34093447
  2 144 102      19.79959194       0.00300000      18.29959194
  2 143 102      19.75007148       0.00300000      18.25007148
  2 143 103      19.70000000       0.00300000      18.20000000
  2 143 104      18.86640302       0.00300000      17.36640302
  2 142 104      18.41814992       0.00300000      16.91814992
  2 143 105      18.09210884       0.00300000      16.59210884
  2 142 105      17.65083904       0.00300000      16.15083904
  2 143 106      16.96566163       0.00300000      15.46566163
  2 143 107      16.07493482       0.00300000      14.57493482
  2 143 108      15.20171771       0.00300000      13.70171771
  2 143 109      14.45103367       0.00300000      12.95103367
  2 142 109      13.99867139       0.00300000      12.49867139
  2 142 110      13.42202720       0.00300000      11.92202720
  2 142 111      12.54698444       0.00300000      11.04698444
  2 142 112      11.66841064       0.00300000      10.16841064
  2 142 113      10.77605742       0.00300000       9.27605742
  2 142 114       9.88198628       0.00300000       8.38198628
  2 142 115       9.00000000       0.00300000       7.50000000
  2 142 116       8.46412517       0.00300000       6.96412517
  2 142 117       7.92090479       0.00300000       6.42090479
  2 142 118       7.34931809       0.00300000       5.84931809
  2 142 119       6.97742188       0.00300000       5.47742188
  2 143 119       6.67864934       0.00300000       5.17864934
  2 143 120       6.18787702       0.00300000       4.68787702
  2 143 121       5.64790970       0.00300000       4.14790970
  2 143 122       5.10830213       0.00300000       3.60830213
  2 143 123       4.56258730       0.00300000       3.06258730
  2 143 124       4.00351458       0.00300000       2.50351458
  2 143 125       3.69452822       0.00300000       2.19452822
  2 142 125       3.40997524       0.00300000       1.90997524
  2 142 126       2.86208657       0.00300000       1.36208657
  2 142 127       2.35897015       0.00300000       0.85897015
  2 141 127       2.08103178       0.00300000       0.58103178
  2 141 128       1.74133475       0.00300000       0.24133475
  2 141 129       1.19127050       0.00300000      -0.30872950
  2 141 130       0.62750152       0.00300000      -0.87249848
  2 141 131       0.31096108       0.00300000      -1.18903892
  2 140 131       0.10000000       0.00300000      -1.40000000
END period  1

