BEGIN options
  SAVE_FLOWS
END options

BEGIN dimensions
  MAXBOUND  127
END dimensions

BEGIN period  1
  2 175 49     130.34318264       0.01000000     128.34318264
  2 175 50     128.55564820       0.01000000     126.55564820
  2 175 51     126.25376970       0.01000000     124.25376970
  2 175 52     123.98103816       0.01000000     121.98103816
  2 175 53     121.74157339       0.01000000     119.74157339
  2 175 54     119.48306495       0.01000000     117.48306495
  2 175 55     117.04096941       0.01000000     115.04096941
  2 175 56     115.11227878       0.01000000     113.11227878
  2 174 56     113.36642823       0.01000000     111.36642823
  2 173 56     111.13918009       0.01000000     109.13918009
  2 172 56     109.29873741       0.01000000     107.29873741
  2 172 57     108.13255142       0.01000000     106.13255142
  2 171 57     106.14088889       0.01000000     104.14088889
  2 171 58     103.45378406       0.01000000     101.45378406
  2 171 59     101.25265770       0.01000000      99.25265770
  2 171 60      99.06293666       0.01000000      97.06293666
  2 171 61      96.87120488       0.01000000      94.87120488
  2 171 62      95.73925211       0.01000000      93.73925211
  2 170 62      94.64593024       0.01000000      92.64593024
  2 170 63      92.50152264       0.01000000      90.50152264
  2 170 64      90.29573320       0.01000000      88.29573320
  2 170 65      87.91159103       0.01000000      85.91159103
  2 170 66      86.51589999       0.01000000      84.51589999
  2 169 66      85.09615100       0.01000000      83.09615100
  2 169 67      83.41946014       0.01000000      81.41946014
  2 168 67      81.97395986       0.01000000      79.97395986
  2 168 68      80.21199467       0.01000000      78.21199467
  2 167 68      78.91855338       0.01000000      76.91855338
  2 167 69      77.09990828       0.01000000      75.09990828
  2 167 70      75.15866443       0.01000000      73.15866443
  2 166 70      74.01146220       0.01000000      72.01146220
  2 166 71      72.66404425       0.01000000      70.66404425
  2 167 71      71.50313513       0.01000000      69.50313513
  2 167 72      70.47168156       0.01000000      68.47168156
  2 166 72      68.82047534       0.01000000      66.82047534
  2 166 73      67.90810276       0.01000000      65.90810276
  2 166 74      67.01746205       0.01000000      65.01746205
  2 165 74      66.27621323       0.01000000      64.27621323
  2 164 74      65.02826677       0.01000000      63.02826677
  2 164 75      63.61975210       0.01000000      61.61975210
  2 164 76      62.04437122       0.01000000      60.04437122
  2 165 76      60.93929886       0.01000000      58.93929886
  2 163 76      59.97456928       0.01000000      57.97456928
  2 162 76      58.76814914       0.01000000      56.76814914
  2 162 77      58.16482503       0.01000000      56.16482503
  2 161 77      57.36494086       0.01000000      55.36494086
  2 161 78      56.07452117       0.01000000      54.07452117
  2 161 79      55.28985579       0.01000000      53.28985579
  2 160 79      54.65346955       0.01000000      52.65346955
  2 160 80      53.71687104       0.01000000      51.71687104
  2 159 80      52.75890615       0.01000000      50.75890615
  2 159 81      52.08433329       0.01000000      50.08433329
  2 158 81      51.26926991       0.01000000      49.26926991
  2 158 82      50.40986412       0.01000000      48.40986412
  2 157 82      49.70742241       0.01000000      47.70742241
  2 157 83      48.74050448       0.01000000      46.74050448
  2 156 83      48.02121017       0.01000000      46.02121017
  2 156 84      47.18616102       0.01000000      45.18616102
  2 155 84      46.39497314       0.01000000      44.39497314
  2 155 85      45.52376134       0.01000000      43.52376134
  2 155 86      44.77042217       0.01000000      42.77042217
  2 154 86      44.09445270       0.01000000      42.09445270
  2 154 87      42.84765379       0.01000000      40.84765379
  2 154 88      41.55062157       0.01000000      39.55062157
  2 153 88      40.79249302       0.01000000      38.79249302
  2 153 89      40.03216069       0.01000000      38.03216069
  2 152 89      39.15191339       0.01000000      37.15191339
  2 152 90      38.27568828       0.01000000      36.27568828
  2 152 91      37.47531116       0.01000000      35.47531116
  2 151 91      36.85445197       0.01000000      34.85445197
  2 151 92      35.72753190       0.01000000      33.72753190
  2 150 92      35.00687994       0.01000000      33.00687994
  2 150 93      34.31505348       0.01000000      32.31505348
  2 150 94      33.13632886       0.01000000      31.13632886
  2 149 94      31.92331491       0.01000000      29.92331491
  2 148 94      30.95574965       0.01000000      28.95574965
  2 148 95      30.35664604       0.01000000      28.35664604
  2 147 95      29.52387840       0.01000000      27.52387840
  2 146 95      28.44407135       0.01000000      26.44407135
  2 146 96      26.24966781       0.01000000      24.24966781
  2 146 97      25.30813191       0.01000000      23.30813191
  2 146 98      24.70905315       0.01000000      22.70905315
  2 147 98      24.22146638       0.01000000      22.22146638
  2 147 99      23.42774567       0.01000000      21.42774567
  2 147 100      22.71675424       0.01000000      20.71675424
  2 146 100      22.17562731       0.01000000      20.17562731
  2 146 101      21.62807406       0.01000000      19.62807406
  2 145 101      20.88962866       0.01000000      18.88962866
  2 144 101      20.28886968       0.01000000      18.28886968
  2 144 102      19.77801088       0.01000000      17.77801088
  2 143 102      19.18525972       0.01000000      17.18525972
  2 143 103      18.47112037       0.01000000      16.47112037
  2 143 104      17.91531480       0.01000000      15.91531480
  2 142 104      17.49520348       0.01000000      15.49520348
  2 142 105      16.74559296       0.01000000      14.74559296
  2 142 106      16.29483306       0.01000000      14.29483306
  2 143 106      15.87105712       0.01000000      13.87105712
  2 143 107      15.06857641       0.01000000      13.06857641
  2 143 108      14.24644037       0.01000000      12.24644037
  2 143 109      13.68060835       0.01000000      11.68060835
  2 142 109      13.25497865       0.01000000      11.25497865
  2 142 110      12.57218990       0.01000000      10.57218990
  2 142 111      11.74962255       0.01000000       9.74962255
  2 142 112      10.92085752       0.01000000       8.92085752
  2 142 113      10.08077601       0.01000000       8.08077601
  2 142 114       9.24096706       0.01000000       7.24096706
  2 142 115       7.77220021       0.01000000       5.77220021
  2 142 116       7.31766526       0.01000000       5.31766526
  2 142 117       6.85641187       0.01000000       4.85641187
  2 142 118       6.36773991       0.01000000       4.36773991
  2 142 119       6.03588579       0.01000000       4.03588579
  2 143 119       5.78503517       0.01000000       3.78503517
  2 143 120       5.38449926       0.01000000       3.38449926
  2 143 121       4.92631146       0.01000000       2.92631146
  2 143 122       4.46824877       0.01000000       2.46824877
  2 143 123       4.00544882       0.01000000       2.00544882
  2 143 124       3.58045515       0.01000000       1.58045515
  2 142 124       3.34016785       0.01000000       1.34016785
  2 142 125       3.04757164       0.01000000       1.04757164
  2 142 126       2.55910784       0.01000000       0.55910784
  2 142 127       2.23361545       0.01000000       0.23361545
  2 141 127       1.99843380       0.01000000      -0.00156620
  2 141 128       1.60934289       0.01000000      -0.39065711
  2 141 129       1.14125496       0.01000000      -0.85874504
  2 141 130       0.71058926       0.01000000      -1.28941074
  2 140 130       0.46653637       0.01000000      -1.53346363
  2 140 131       0.25888115       0.01000000      -1.74111885
END period  1

