BEGIN options
  SAVE_FLOWS
END options

BEGIN dimensions
  MAXBOUND  127
END dimensions

BEGIN period  1
  1 175 49     130.34318264       0.01000000     128.34318264
  1 175 50     128.55564820       0.01000000     126.55564820
  1 175 51     126.25376970       0.01000000     124.25376970
  1 175 52     123.98103816       0.01000000     121.98103816
  1 175 53     121.74157339       0.01000000     119.74157339
  1 175 54     119.48306495       0.01000000     117.48306495
  1 175 55     117.04096941       0.01000000     115.04096941
  1 175 56     115.11227878       0.01000000     113.11227878
  1 174 56     113.36642823       0.01000000     111.36642823
  1 173 56     111.13918009       0.01000000     109.13918009
  1 172 56     109.29873741       0.01000000     107.29873741
  1 172 57     108.13255142       0.01000000     106.13255142
  1 171 57     106.14088889       0.01000000     104.14088889
  1 171 58     103.45378406       0.01000000     101.45378406
  1 171 59     101.25265770       0.01000000      99.25265770
  1 171 60      99.06293666       0.01000000      97.06293666
  1 171 61      96.87120488       0.01000000      94.87120488
  1 171 62      95.73925211       0.01000000      93.73925211
  1 170 62      94.64593024       0.01000000      92.64593024
  1 170 63      92.50152264       0.01000000      90.50152264
  1 170 64      90.29573320       0.01000000      88.29573320
  1 170 65      87.91159103       0.01000000      85.91159103
  1 170 66      86.51589999       0.01000000      84.51589999
  1 169 66      85.09615100       0.01000000      83.09615100
  1 169 67      83.41946014       0.01000000      81.41946014
  1 168 67      81.97395986       0.01000000      79.97395986
  1 168 68      80.21199467       0.01000000      78.21199467
  1 167 68      78.91855338       0.01000000      76.91855338
  1 167 69      77.09990828       0.01000000      75.09990828
  1 167 70      75.15866443       0.01000000      73.15866443
  1 166 70      74.01146220       0.01000000      72.01146220
  1 166 71      72.66404425       0.01000000      70.66404425
  1 167 71      71.50313513       0.01000000      69.50313513
  1 167 72      70.47168156       0.01000000      68.47168156
  1 166 72      68.82047534       0.01000000      66.82047534
  1 166 73      67.90810276       0.01000000      65.90810276
  1 166 74      67.01746205       0.01000000      65.01746205
  1 165 74      66.27621323       0.01000000      64.27621323
  1 164 74      65.02826677       0.01000000      63.02826677
  1 164 75      63.61975210       0.01000000      61.61975210
  1 164 76      62.04437122       0.01000000      60.04437122
  1 165 76      60.93929886       0.01000000      58.93929886
  1 163 76      59.97456928       0.01000000      57.97456928
  1 162 76      58.76814914       0.01000000      56.76814914
  1 162 77      58.16482503       0.01000000      56.16482503
  1 161 77      57.36494086       0.01000000      55.36494086
  1 161 78      56.07452117       0.01000000      54.07452117
  1 161 79      55.28985579       0.01000000      53.28985579
  1 160 79      54.65346955       0.01000000      52.65346955
  1 160 80      53.71687104       0.01000000      51.71687104
  1 159 80      52.75890615       0.01000000      50.75890615
  1 159 81      52.08433329       0.01000000      50.08433329
  1 158 81      51.26926991       0.01000000      49.26926991
  1 158 82      50.40986412       0.01000000      48.40986412
  1 157 82      49.70742241       0.01000000      47.70742241
  1 157 83      48.74050448       0.01000000      46.74050448
  1 156 83      48.02121017       0.01000000      46.02121017
  1 156 84      47.18616102       0.01000000      45.18616102
  1 155 84      46.39497314       0.01000000      44.39497314
  1 155 85      45.52376134       0.01000000      43.52376134
  1 155 86      44.77042217       0.01000000      42.77042217
  1 154 86      44.09445270       0.01000000      42.09445270
  1 154 87      42.84765379       0.01000000      40.84765379
  1 154 88      41.55062157       0.01000000      39.55062157
  1 153 88      40.79249302       0.01000000      38.79249302
  1 153 89      40.03216069       0.01000000      38.03216069
  1 152 89      39.15191339       0.01000000      37.15191339
  1 152 90      38.27568828       0.01000000      36.27568828
  1 152 91      37.47531116       0.01000000      35.47531116
  1 151 91      36.85445197       0.01000000      34.85445197
  1 151 92      35.72753190       0.01000000      33.72753190
  1 150 92      35.00687994       0.01000000      33.00687994
  1 150 93      34.31505348       0.01000000      32.31505348
  1 150 94      33.13632886       0.01000000      31.13632886
  1 149 94      31.92331491       0.01000000      29.92331491
  1 148 94      30.95574965       0.01000000      28.95574965
  1 148 95      30.35664604       0.01000000      28.35664604
  1 147 95      29.52387840       0.01000000      27.52387840
  1 146 95      28.44407135       0.01000000      26.44407135
  1 146 96      26.20150394       0.01000000      24.20150394
  1 146 97      25.15926901       0.01000000      23.15926901
  1 146 98      24.49611766       0.01000000      22.49611766
  1 147 98      23.95638257       0.01000000      21.95638257
  1 147 99      23.07777195       0.01000000      21.07777195
  1 147 100      22.29073865       0.01000000      20.29073865
  1 146 100      21.69173718       0.01000000      19.69173718
  1 146 101      21.08562209       0.01000000      19.08562209
  1 145 101      20.26819857       0.01000000      18.26819857
  1 144 101      19.60318730       0.01000000      17.60318730
  1 144 102      19.03769119       0.01000000      17.03769119
  1 143 102      18.38154419       0.01000000      16.38154419
  1 143 103      17.59102629       0.01000000      15.59102629
  1 143 104      16.97577627       0.01000000      14.97577627
  1 142 104      16.51073326       0.01000000      14.51073326
  1 142 105      15.68095050       0.01000000      13.68095050
  1 142 106      15.18198098       0.01000000      13.18198098
  1 143 106      14.71288141       0.01000000      12.71288141
  1 143 107      13.82457388       0.01000000      11.82457388
  1 143 108      12.91450886       0.01000000      10.91450886
  1 143 109      12.28816004       0.01000000      10.28816004
  1 142 109      11.81700845       0.01000000       9.81700845
  1 142 110      11.06119417       0.01000000       9.06119417
  1 142 111      10.15065170       0.01000000       8.15065170
  1 142 112       9.23324869       0.01000000       7.23324869
  1 142 113       8.30331889       0.01000000       6.30331889
  1 142 114       7.37369081       0.01000000       5.37369081
  1 142 115       5.82987104       0.01000000       3.82987104
  1 142 116       5.49040823       0.01000000       3.49040823
  1 142 117       5.14592785       0.01000000       3.14592785
  1 142 118       4.78097031       0.01000000       2.78097031
  1 142 119       4.53312989       0.01000000       2.53312989
  1 143 119       4.34578576       0.01000000       2.34578576
  1 143 120       4.04665135       0.01000000       2.04665135
  1 143 121       3.70446045       0.01000000       1.70446045
  1 143 122       3.36236300       0.01000000       1.36236300
  1 143 123       3.01672760       0.01000000       1.01672760
  1 143 124       2.69932726       0.01000000       0.69932726
  1 142 124       2.51987219       0.01000000       0.51987219
  1 142 125       2.30135097       0.01000000       0.30135097
  1 142 126       1.93654890       0.01000000      -0.06345110
  1 142 127       1.69345964       0.01000000      -0.30654036
  1 141 127       1.51781765       0.01000000      -0.48218235
  1 141 128       1.22723077       0.01000000      -0.77276923
  1 141 129       0.87764611       0.01000000      -1.12235389
  1 141 130       0.55600970       0.01000000      -1.44399030
  1 140 130       0.37374235       0.01000000      -1.62625765
  1 140 131       0.21865807       0.01000000      -1.78134193
END period  1

