BEGIN options
  SAVE_FLOWS
END options

BEGIN dimensions
  MAXBOUND  111
END dimensions

BEGIN period  1
  2 175 49     131.07810611       0.00300000     129.57810611
  2 175 50     128.32434415       0.00300000     126.82434415
  2 175 51     124.57751252       0.00300000     123.07751252
  2 175 52     120.86597304       0.00300000     119.36597304
  2 175 53     117.21720059       0.00300000     115.71720059
  2 175 54     113.53233328       0.00300000     112.03233328
  2 175 55     109.55237756       0.00300000     108.05237756
  2 175 56     104.21751237       0.00300000     102.71751237
  2 174 56     102.92555261       0.00300000     101.42555261
  2 173 56     101.44796863       0.00300000      99.94796863
  2 172 56     100.45434921       0.00300000      98.95434921
  2 172 57      99.66953100       0.00300000      98.16953100
  2 171 57      98.22225395       0.00300000      96.72225395
  2 171 58      94.83692743       0.00300000      93.33692743
  2 171 59      92.90748058       0.00300000      91.40748058
  2 171 60      90.98976785       0.00300000      89.48976785
  2 171 61      89.06844248       0.00300000      87.56844248
  2 171 62      87.26964538       0.00300000      85.76964538
  2 170 62      86.31117902       0.00300000      84.81117902
  2 170 63      83.63216097       0.00300000      82.13216097
  2 170 64      82.32491291       0.00300000      80.82491291
  2 170 65      80.91597485       0.00300000      79.41597485
  2 170 66      79.92169007       0.00300000      78.42169007
  2 169 66      79.09512232       0.00300000      77.59512232
  2 169 67      78.11720055       0.00300000      76.61720055
  2 168 67      76.34264875       0.00300000      74.84264875
  2 167 68      74.63053462       0.00300000      73.13053462
  2 162 76      59.17689264       0.00300000      57.67689264
  2 161 77      57.74013944       0.00300000      56.24013944
  2 161 78      56.66187996       0.00300000      55.16187996
  2 160 79      55.22655982       0.00300000      53.72655982
  2 160 80      54.44716086       0.00300000      52.94716086
  2 159 80      53.61333767       0.00300000      52.11333767
  2 159 81      52.99257540       0.00300000      51.49257540
  2 158 81      52.22452614       0.00300000      50.72452614
  2 158 82      51.43070421       0.00300000      49.93070421
  2 157 82      50.78855425       0.00300000      49.28855425
  2 157 83      49.92071561       0.00300000      48.42071561
  2 156 83      49.27315149       0.00300000      47.77315149
  2 156 84      46.90194934       0.00300000      45.40194934
  2 155 84      45.97274525       0.00300000      44.47274525
  2 155 85      45.09547608       0.00300000      43.59547608
  2 155 86      44.03706292       0.00300000      42.53706292
  2 154 86      43.24120813       0.00300000      41.74120813
  2 154 87      42.23169008       0.00300000      40.73169008
  2 155 87      41.51298921       0.00300000      40.01298921
  2 154 88      38.95375477       0.00300000      37.45375477
  2 154 89      38.34150836       0.00300000      36.84150836
  2 153 89      37.68502888       0.00300000      36.18502888
  2 152 89      37.06276002       0.00300000      35.56276002
  2 152 90      36.49795138       0.00300000      34.99795138
  2 152 91      35.77256652       0.00300000      34.27256652
  2 151 91      35.29554650       0.00300000      33.79554650
  2 151 92      34.46401582       0.00300000      32.96401582
  2 151 93      33.83846530       0.00300000      32.33846530
  2 150 93      33.40103642       0.00300000      31.90103642
  2 150 94      32.49504320       0.00300000      30.99504320
  2 149 94      31.50194587       0.00300000      30.00194587
  2 149 95      31.05244544       0.00300000      29.55244544
  2 148 94      30.96045885       0.00300000      29.46045885
  2 148 95      30.50341630       0.00300000      29.00341630
  2 147 95      29.68884893       0.00300000      28.18884893
  2 146 95      28.94819201       0.00300000      27.44819201
  2 146 96      27.14776905       0.00300000      25.64776905
  2 146 97      26.00306991       0.00300000      24.50306991
  2 146 98      25.29405626       0.00300000      23.79405626
  2 147 98      24.68907366       0.00300000      23.18907366
  2 147 99      23.69595245       0.00300000      22.19595245
  2 147 100      22.73190553       0.00300000      21.23190553
  2 146 100      22.08439241       0.00300000      20.58439241
  2 146 101      21.42065389       0.00300000      19.92065389
  2 145 101      19.85528905       0.00300000      18.35528905
  2 144 101      19.82738795       0.00300000      18.32738795
  2 144 102      19.79786059       0.00300000      18.29786059
  2 143 102      19.76249243       0.00300000      18.26249243
  2 143 103      19.23947293       0.00300000      17.73947293
  2 143 104      18.47316457       0.00300000      16.97316457
  2 142 104      18.06109483       0.00300000      16.56109483
  2 143 105      17.76137205       0.00300000      16.26137205
  2 142 105      17.35572191       0.00300000      15.85572191
  2 143 106      16.72585257       0.00300000      15.22585257
  2 143 107      15.90702595       0.00300000      14.40702595
  2 143 108      15.10429563       0.00300000      13.60429563
  2 143 109      14.41420742       0.00300000      12.91420742
  2 142 109      13.99836019       0.00300000      12.49836019
  2 142 110      13.46826318       0.00300000      11.96826318
  2 142 111      12.66385458       0.00300000      11.16385458
  2 142 112      11.85619997       0.00300000      10.35619997
  2 142 113      11.03587823       0.00300000       9.53587823
  2 142 114      10.21397723       0.00300000       8.71397723
  2 142 115       8.74407608       0.00300000       7.24407608
  2 142 116       8.23405332       0.00300000       6.73405332
  2 142 117       7.71703938       0.00300000       6.21703938
  2 142 118       7.17302759       0.00300000       5.67302759
  2 142 119       6.81907267       0.00300000       5.31907267
  2 143 119       6.53471373       0.00300000       5.03471373
  2 143 120       6.06761761       0.00300000       4.56761761
  2 143 121       5.55369979       0.00300000       4.05369979
  2 143 122       5.04012437       0.00300000       3.54012437
  2 143 123       4.52073632       0.00300000       3.02073632
  2 143 124       3.98863480       0.00300000       2.48863480
  2 143 125       3.69455479       0.00300000       2.19455479
  2 142 125       3.42372942       0.00300000       1.92372942
  2 142 126       2.90227240       0.00300000       1.40227240
  2 142 127       2.42342769       0.00300000       0.92342769
  2 141 127       2.15889783       0.00300000       0.65889783
  2 141 128       1.83558872       0.00300000       0.33558872
  2 141 129       1.31206107       0.00300000      -0.18793893
  2 141 130       0.77548985       0.00300000      -0.72451015
  2 141 131       0.47422019       0.00300000      -1.02577981
  2 140 131       0.27343645       0.00300000      -1.22656355
END period  1

