BEGIN options
  XORIGIN  6.60022500E+05
  YORIGIN  6.14997750E+06
END options

BEGIN dimensions
  NLAY  3
  NROW  183
  NCOL  150
END dimensions

BEGIN griddata
  delr
    INTERNAL  FACTOR  1.0
       300.00000000     300.00000000     300.00000000     300.00000000     300.00000000     300.00000000     300.00000000     300.00000000     300.00000000     300.00000000     300.00000000     300.00000000     300.00000000     300.00000000     300.00000000     300.00000000     300.00000000     300.00000000     300.00000000     300.00000000
       300.00000000     300.00000000     300.00000000     300.00000000     300.00000000     300.00000000     300.00000000     300.00000000     300.00000000     300.00000000     300.00000000     300.00000000     300.00000000     300.00000000     300.00000000     300.00000000     300.00000000     300.00000000     300.00000000     300.00000000
       300.00000000     300.00000000     300.00000000     300.00000000     300.00000000     300.00000000     300.00000000     300.00000000     300.00000000     300.00000000     300.00000000     300.00000000     300.00000000     300.00000000     300.00000000     300.00000000     300.00000000     300.00000000     300.00000000     300.00000000
       300.00000000     300.00000000     300.00000000     300.00000000     300.00000000     300.00000000     300.00000000     300.00000000     300.00000000     300.00000000     300.00000000     300.00000000     300.00000000     300.00000000     300.00000000     300.00000000     300.00000000     300.00000000     300.00000000     300.00000000
       300.00000000     300.00000000     300.00000000     300.00000000     300.00000000     300.00000000     300.00000000     300.00000000     300.00000000     300.00000000     300.00000000     300.00000000     300.00000000     300.00000000     300.00000000     300.00000000     300.00000000     300.00000000     300.00000000     300.00000000
       300.00000000     300.00000000     300.00000000     300.00000000     300.00000000     300.00000000     300.00000000     300.00000000     300.00000000     300.00000000     300.00000000     300.00000000     300.00000000     300.00000000     300.00000000     300.00000000     300.00000000     300.00000000     300.00000000     300.00000000
       300.00000000     300.00000000     300.00000000     300.00000000     300.00000000     300.00000000     300.00000000     300.00000000     300.00000000     300.00000000     300.00000000     300.00000000     300.00000000     300.00000000     300.00000000     300.00000000     300.00000000     300.00000000     300.00000000     300.00000000
       300.00000000     300.00000000     300.00000000     300.00000000     300.00000000     300.00000000     300.00000000     300.00000000     300.00000000     300.00000000
  delc
    INTERNAL  FACTOR  1.0
       300.00000000     300.00000000     300.00000000     300.00000000     300.00000000     300.00000000     300.00000000     300.00000000     300.00000000     300.00000000     300.00000000     300.00000000     300.00000000     300.00000000     300.00000000     300.00000000     300.00000000     300.00000000     300.00000000     300.00000000
       300.00000000     300.00000000     300.00000000     300.00000000     300.00000000     300.00000000     300.00000000     300.00000000     300.00000000     300.00000000     300.00000000     300.00000000     300.00000000     300.00000000     300.00000000     300.00000000     300.00000000     300.00000000     300.00000000     300.00000000
       300.00000000     300.00000000     300.00000000     300.00000000     300.00000000     300.00000000     300.00000000     300.00000000     300.00000000     300.00000000     300.00000000     300.00000000     300.00000000     300.00000000     300.00000000     300.00000000     300.00000000     300.00000000     300.00000000     300.00000000
       300.00000000     300.00000000     300.00000000     300.00000000     300.00000000     300.00000000     300.00000000     300.00000000     300.00000000     300.00000000     300.00000000     300.00000000     300.00000000     300.00000000     300.00000000     300.00000000     300.00000000     300.00000000     300.00000000     300.00000000
       300.00000000     300.00000000     300.00000000     300.00000000     300.00000000     300.00000000     300.00000000     300.00000000     300.00000000     300.00000000     300.00000000     300.00000000     300.00000000     300.00000000     300.00000000     300.00000000     300.00000000     300.00000000     300.00000000     300.00000000
       300.00000000     300.00000000     300.00000000     300.00000000     300.00000000     300.00000000     300.00000000     300.00000000     300.00000000     300.00000000     300.00000000     300.00000000     300.00000000     300.00000000     300.00000000     300.00000000     300.00000000     300.00000000     300.00000000     300.00000000
       300.00000000     300.00000000     300.00000000     300.00000000     300.00000000     300.00000000     300.00000000     300.00000000     300.00000000     300.00000000     300.00000000     300.00000000     300.00000000     300.00000000     300.00000000     300.00000000     300.00000000     300.00000000     300.00000000     300.00000000
       300.00000000     300.00000000     300.00000000     300.00000000     300.00000000     300.00000000     300.00000000     300.00000000     300.00000000     300.00000000     300.00000000     300.00000000     300.00000000     300.00000000     300.00000000     300.00000000     300.00000000     300.00000000     300.00000000     300.00000000
       300.00000000     300.00000000     300.00000000     300.00000000     300.00000000     300.00000000     300.00000000     300.00000000     300.00000000     300.00000000     300.00000000     300.00000000     300.00000000     300.00000000     300.00000000     300.00000000     300.00000000     300.00000000     300.00000000     300.00000000
       300.00000000     300.00000000     300.00000000
  top
    INTERNAL  FACTOR  1.0
     -9999.00000000   -9999.00000000   -9999.00000000   -9999.00000000   -9999.00000000   -9999.00000000   -9999.00000000   -9999.00000000   -9999.00000000   -9999.00000000   -9999.00000000   -9999.00000000   -9999.00000000   -9999.00000000   -9999.00000000   -9999.00000000   -9999.00000000   -9999.00000000   -9999.00000000   -9999.00000000
     -9999.00000000   -9999.00000000   -9999.00000000   -9999.00000000   -9999.00000000   -9999.00000000   -9999.00000000   -9999.00000000   -9999.00000000   -9999.00000000   -9999.00000000   -9999.00000000   -9999.00000000   -9999.00000000   -9999.00000000   -9999.00000000   -9999.00000000   -9999.00000000   -9999.00000000   -9999.00000000
     -9999.00000000   -9999.00000000   -9999.00000000   -9999.00000000   -9999.00000000   -9999.00000000   -9999.00000000   -9999.00000000   -9999.00000000   -9999.00000000   -9999.00000000   -9999.00000000   -9999.00000000   -9999.00000000   -9999.00000000   -9999.00000000   -9999.00000000   -9999.00000000   -9999.00000000   -9999.00000000
     -9999.00000000   -9999.00000000   -9999.00000000   -9999.00000000   -9999.00000000   -9999.00000000   -9999.00000000   -9999.00000000   -9999.00000000   -9999.00000000   -9999.00000000   -9999.00000000   -9999.00000000   -9999.00000000   -9999.00000000   -9999.00000000   -9999.00000000   -9999.00000000   -9999.00000000   -9999.00000000
     -9999.00000000   -9999.00000000   -9999.00000000   -9999.00000000   -9999.00000000   -9999.00000000   -9999.00000000   -9999.00000000   -9999.00000000   -9999.00000000   -9999.00000000   -9999.00000000   -9999.00000000   -9999.00000000   -9999.00000000   -9999.00000000   -9999.00000000   -9999.00000000   -9999.00000000   -9999.00000000
     -9999.00000000   -9999.00000000   -9999.00000000   -9999.00000000   -9999.00000000   -9999.00000000   -9999.00000000   -9999.00000000   -9999.00000000   -9999.00000000   -9999.00000000   -9999.00000000   -9999.00000000   -9999.00000000   -9999.00000000   -9999.00000000   -9999.00000000   -9999.00000000   -9999.00000000   -9999.00000000
     -9999.00000000   -9999.00000000   -9999.00000000   -9999.00000000   -9999.00000000   -9999.00000000   -9999.00000000   -9999.00000000   -9999.00000000   -9999.00000000   -9999.00000000   -9999.00000000   -9999.00000000   -9999.00000000   -9999.00000000       9.05698177       4.52891155       1.81640539      -1.12845998      -2.20902494
        -2.74421891      -1.88086369      -2.46663399      -2.62314034      -0.58651369      -2.27308641      -6.07286479      -7.47878194      -8.87397103     -11.42474293
     -9999.00000000   -9999.00000000   -9999.00000000   -9999.00000000   -9999.00000000   -9999.00000000   -9999.00000000   -9999.00000000   -9999.00000000   -9999.00000000   -9999.00000000   -9999.00000000   -9999.00000000   -9999.00000000   -9999.00000000   -9999.00000000   -9999.00000000   -9999.00000000   -9999.00000000   -9999.00000000
     -9999.00000000   -9999.00000000   -9999.00000000   -9999.00000000   -9999.00000000   -9999.00000000   -9999.00000000   -9999.00000000   -9999.00000000   -9999.00000000   -9999.00000000   -9999.00000000   -9999.00000000   -9999.00000000   -9999.00000000   -9999.00000000   -9999.00000000   -9999.00000000   -9999.00000000   -9999.00000000
     -9999.00000000   -9999.00000000   -9999.00000000   -9999.00000000   -9999.00000000   -9999.00000000   -9999.00000000   -9999.00000000   -9999.00000000   -9999.00000000   -9999.00000000   -9999.00000000   -9999.00000000   -9999.00000000   -9999.00000000   -9999.00000000   -9999.00000000   -9999.00000000   -9999.00000000   -9999.00000000
     -9999.00000000   -9999.00000000   -9999.00000000   -9999.00000000   -9999.00000000   -9999.00000000   -9999.00000000   -9999.00000000   -9999.00000000   -9999.00000000   -9999.00000000   -9999.00000000   -9999.00000000   -9999.00000000   -9999.00000000   -9999.00000000   -9999.00000000   -9999.00000000   -9999.00000000   -9999.00000000
     -9999.00000000   -9999.00000000   -9999.00000000   -9999.00000000   -9999.00000000   -9999.00000000   -9999.00000000   -9999.00000000   -9999.00000000   -9999.00000000   -9999.00000000   -9999.00000000   -9999.00000000   -9999.00000000   -9999.00000000   -9999.00000000   -9999.00000000   -9999.00000000   -9999.00000000   -9999.00000000
     -9999.00000000   -9999.00000000   -9999.00000000   -9999.00000000   -9999.00000000   -9999.00000000   -9999.00000000   -9999.00000000   -9999.00000000   -9999.00000000   -9999.00000000   -9999.00000000   -9999.00000000   -9999.00000000   -9999.00000000   -9999.00000000   -9999.00000000   -9999.00000000   -9999.00000000   -9999.00000000
     -9999.00000000   -9999.00000000   -9999.00000000   -9999.00000000   -9999.00000000   -9999.00000000   -9999.00000000   -9999.00000000   -9999.00000000   -9999.00000000   -9999.00000000   -9999.00000000      16.28180625      12.92762066       8.50950348       5.41849971       2.33502335      -0.25138157       0.04458539      -1.34444428
        -0.18393821      -0.85204354       0.21936272       2.44604897      -1.29407116      -3.59786480      -4.54551105      -6.83998138      -9.13856599     -10.68381889
     -9999.00000000   -9999.00000000   -9999.00000000   -9999.00000000   -9999.00000000   -9999.00000000   -9999.00000000   -9999.00000000   -9999.00000000   -9999.00000000   -9999.00000000   -9999.00000000   -9999.00000000   -9999.00000000   -9999.00000000   -9999.00000000   -9999.00000000   -9999.00000000   -9999.00000000   -9999.00000000
     -9999.00000000   -9999.00000000   -9999.00000000   -9999.00000000   -9999.00000000   -9999.00000000   -9999.00000000   -9999.00000000   -9999.00000000   -9999.00000000   -9999.00000000   -9999.00000000   -9999.00000000   -9999.00000000   -9999.00000000   -9999.00000000   -9999.00000000   -9999.00000000   -9999.00000000   -9999.00000000
     -9999.00000000   -9999.00000000   -9999.00000000   -9999.00000000   -9999.00000000   -9999.00000000   -9999.00000000   -9999.00000000   -9999.00000000   -9999.00000000   -9999.00000000   -9999.00000000   -9999.00000000   -9999.00000000   -9999.00000000   -9999.00000000   -9999.00000000   -9999.00000000   -9999.00000000   -9999.00000000
     -9999.00000000   -9999.00000000   -9999.00000000   -9999.00000000   -9999.00000000   -9999.00000000   -9999.00000000   -9999.00000000   -9999.00000000   -9999.00000000   -9999.00000000   -9999.00000000   -9999.00000000   -9999.00000000   -9999.00000000   -9999.00000000   -9999.00000000   -9999.00000000   -9999.00000000   -9999.00000000
     -9999.00000000   -9999.00000000   -9999.00000000   -9999.00000000   -9999.00000000   -9999.00000000   -9999.00000000   -9999.00000000   -9999.00000000   -9999.00000000   -9999.00000000   -9999.00000000   -9999.00000000   -9999.00000000   -9999.00000000   -9999.00000000   -9999.00000000   -9999.00000000   -9999.00000000   -9999.00000000
     -9999.00000000   -9999.00000000   -9999.00000000   -9999.00000000   -9999.00000000   -9999.00000000   -9999.00000000   -9999.00000000   -9999.00000000   -9999.00000000   -9999.00000000   -9999.00000000   -9999.00000000   -9999.00000000   -9999.00000000   -9999.00000000   -9999.00000000   -9999.00000000   -9999.00000000   -9999.00000000
     -9999.00000000   -9999.00000000   -9999.00000000   -9999.00000000   -9999.00000000   -9999.00000000   -9999.00000000   -9999.00000000   -9999.00000000      23.06705726      20.06653000      16.65237445      12.64176282       8.83432147       5.96551186       2.88983303       1.37589584       1.84311822       0.83664584       1.45609837
         1.55174300       3.10537948       5.42742893       0.03152365      -1.20219306      -2.35434530      -4.32725688      -6.53936650      -8.83263578     -11.12590401
     -9999.00000000   -9999.00000000   -9999.00000000   -9999.00000000   -9999.00000000   -9999.00000000   -9999.00000000   -9999.00000000   -9999.00000000   -9999.00000000   -9999.00000000   -9999.00000000   -9999.00000000   -9999.00000000   -9999.00000000   -9999.00000000   -9999.00000000     572.72417374     561.15116908     533.70334251
       545.66717002     512.69663233     446.90266480     397.30668858     419.64548841     468.61031670     452.71241315     397.28655736     372.68778112     343.25300508     344.68999120     345.87917234     347.11031670     352.83112920     361.77298592     398.74190418     378.65971882     439.32740975     425.74968487     434.75993539
       493.54907264     560.81184836     529.55759365     465.37593276     432.07580397     442.57901482     394.95081730     370.36262178   -9999.00000000   -9999.00000000   -9999.00000000   -9999.00000000   -9999.00000000   -9999.00000000   -9999.00000000   -9999.00000000   -9999.00000000   -9999.00000000   -9999.00000000   -9999.00000000
     -9999.00000000   -9999.00000000   -9999.00000000   -9999.00000000   -9999.00000000   -9999.00000000   -9999.00000000   -9999.00000000   -9999.00000000   -9999.00000000   -9999.00000000   -9999.00000000   -9999.00000000   -9999.00000000   -9999.00000000   -9999.00000000   -9999.00000000   -9999.00000000   -9999.00000000   -9999.00000000
     -9999.00000000   -9999.00000000   -9999.00000000   -9999.00000000   -9999.00000000   -9999.00000000   -9999.00000000   -9999.00000000   -9999.00000000   -9999.00000000   -9999.00000000   -9999.00000000   -9999.00000000   -9999.00000000   -9999.00000000   -9999.00000000   -9999.00000000   -9999.00000000   -9999.00000000   -9999.00000000
     -9999.00000000   -9999.00000000   -9999.00000000   -9999.00000000   -9999.00000000   -9999.00000000   -9999.00000000   -9999.00000000   -9999.00000000   -9999.00000000   -9999.00000000   -9999.00000000   -9999.00000000   -9999.00000000   -9999.00000000   -9999.00000000   -9999.00000000   -9999.00000000   -9999.00000000   -9999.00000000
     -9999.00000000   -9999.00000000   -9999.00000000   -9999.00000000   -9999.00000000      37.70732241      32.44937697      27.50000000      24.35366120      21.04509274      17.27254637      12.09571577       9.77254637       6.77254637       4.00000000       3.22745363       3.27254637       2.90428423       5.51036058       5.78843724
        13.76959597      10.01036058       3.65116908       1.22728121       0.24208868      -1.98676745      -4.21562299      -6.83938359      -9.07134395     -11.30019795
     -9999.00000000   -9999.00000000   -9999.00000000   -9999.00000000   -9999.00000000   -9999.00000000   -9999.00000000   -9999.00000000   -9999.00000000   -9999.00000000   -9999.00000000   -9999.00000000   -9999.00000000   -9999.00000000   -9999.00000000   -9999.00000000   -9999.00000000     551.14928920     518.01401099     528.03897250
       479.46338796     468.94167762     369.94148621     378.85860156     386.11923695     410.97337803     392.29363805     395.53344221     374.24706396     368.69921222     335.35875194     340.09995611     363.54509274     336.80771808     341.91007498     394.89440353     371.20872242     384.30823898     393.35340076     444.23239398
       520.47547804     626.59062503     592.15330942     522.79610787     548.44004588     571.77538671     459.26620601     439.91125486     408.38205300     395.86782258     312.89606399     265.96810818     273.79326753     246.58395517     218.33965021     215.94454668     283.35410076     357.98834947     323.76598658     340.65938933
       323.50822025     337.70603246     305.12163773     276.58863508     297.13608828     298.73453432     261.39038331     279.07628455     278.29138765     278.60747636     322.83138965     387.55272304     376.46128795     301.69357187     283.57016431     260.71440310     262.64268839     255.13715809     236.53119181     259.58675519
       335.46194763     302.37582340     327.95291731     285.55405331     241.24902519     181.96994775     203.28301701     313.51913045     280.81568948     289.72155353     390.47005781     460.10769579     543.21222174     552.24924531     482.11625782     396.17296077     348.84002073     323.79042719     374.96231744     373.64452795
       431.30163816     329.01689165     243.15953972     215.28714730     213.14294884     184.67683060     185.75606555     181.02861192     178.94904748     154.53049181     214.58170478     227.12819752     222.16577002     208.17130031     200.57558454     184.53119181     176.40653463     161.92666586     161.83235010     141.60773681
       112.63398826      96.38286306      73.07005425      55.57134419      45.01036058      40.93831638      32.36826213      29.72192334      26.77254637      22.27254637      16.04509274      12.77254637       9.04509274       6.09571577       3.00000000       3.22745363       2.50000000      10.68435085      36.75241514      38.00000000
        42.34459057      49.27254637      50.61444698      11.82246939       1.23577425       0.40129264      -1.82756344      -4.45442841      -6.68328433      -9.30774800
     -9999.00000000   -9999.00000000   -9999.00000000   -9999.00000000   -9999.00000000   -9999.00000000   -9999.00000000   -9999.00000000   -9999.00000000   -9999.00000000   -9999.00000000   -9999.00000000   -9999.00000000   -9999.00000000   -9999.00000000   -9999.00000000   -9999.00000000     530.66281961     533.97621837     513.81339876
       494.55781378     446.96659881     396.67296077     349.30528857     386.11016631     403.80469863     375.12034779     364.29182720     362.08948547     390.42924575     378.44727696     327.52909180     336.64773881     339.61540743     378.50172950     395.71097282     355.24714530     383.33326953     419.51025052     431.45593676
       531.72848313     621.59486538     651.41505565     594.91169441     620.73545375     628.24028404     566.30646845     550.16834991     478.02780185     399.68262134     329.86332178     278.36697219     277.00708069     249.49188982     257.79551793     210.93149614     286.74179411     275.26738659     307.10581590     343.95420726
       305.68719118     326.14987914     307.65824977     253.55755333     284.29750788     251.48963942     239.56651391     273.66185916     283.25300508     307.91239442     330.86859163     360.09276536     331.50638068     290.96751824     283.37906227     289.86800169     357.73331342     323.74515535     261.20083166     264.65234897
       237.60666629     254.43440553     229.42238519     245.47363848     192.81011886     272.63947754     320.30008777     269.76081450     410.71665349     321.29669781     286.61359659     379.09084516     516.95132660     509.40937497     417.92102550     388.70083166     363.55180291     381.25628498     454.47746799     478.99564959
       514.67414065     389.11352755     284.04203227     271.34872085     207.02297156     205.50483029     185.31339876     179.51589088     166.30657852     213.37766226     244.16705996     230.28714730     226.41888516     213.95844761     195.98624946     188.45232737     170.10902675     138.94115672     125.20275257      99.41431532
        79.21156276      86.38087312      85.54708269      68.78102706      50.56747436      39.18590124      31.38415301      26.89875394      26.09571577      22.09571577      19.04509274      13.77254637       9.22192334       4.27254637       4.00000000       5.17683060       3.10124606      33.34400063      39.27254637      37.94937697
        38.83422998      45.41888516      48.82869969      49.50000000      47.44373661      12.19267313       0.19122005      -2.26148023      -1.55979497      -7.48108786
     -9999.00000000   -9999.00000000   -9999.00000000   -9999.00000000   -9999.00000000   -9999.00000000   -9999.00000000   -9999.00000000   -9999.00000000   -9999.00000000   -9999.00000000   -9999.00000000   -9999.00000000   -9999.00000000   -9999.00000000   -9999.00000000   -9999.00000000     562.19696183     542.82767019     464.82342985
       461.56721391     487.09571577     379.45730805     411.91534482     364.40572456     332.32316940     333.38839336     335.57827450     350.63328826     361.03473215     376.80996848     367.58922502     361.09361575     331.79514742     320.63313787     329.70968287     325.23556382     359.02083123     387.55261298     442.35705116
       515.15654899     569.07274420     653.24389413     702.89949427     710.37305210     775.19401142     707.02275143     593.94200711     501.34559134     417.80130867     335.81306926     277.87309242     251.97857883     243.16093973     233.04498267     226.37622193     249.75857640     286.74238405     348.84846040     371.94185673
       323.03403215     298.85919150     329.36885207     265.48753940     265.17469027     246.55372382     285.78065655     362.54188188     373.24124449     315.07860399     404.90048344     443.16211961     392.69486181     334.74393445     320.13173787     294.47053769     390.76321528     302.12318813     353.71532253     360.51390093
       310.18852215     222.85038131     261.90959440     218.68380123     249.62096645     351.19703087     427.83057958     306.71842332     335.93134576     448.89786323     451.25278496     440.63420769     471.00043956     505.67060030     462.87600181     464.79706832     475.91851465     447.47610830     526.43042563     579.68520123
       505.10563679     416.52234060     411.01165053     332.60589724     230.05571377     209.99634959     210.39097325     185.68719118     180.05744327     238.88105222     247.30233817     226.42865581     187.30244823     181.40111440     186.73947467     149.07064419     125.41560527     103.43606598     102.03532209     118.89012286
       111.27479677      68.52426151      58.14987914      74.05261298      65.95973755      54.99930000      36.31210881      30.32316940      26.39875394      20.82316940      18.77254637      15.22192334      11.04509274       7.44937697       3.27254637       4.15981006       1.00000000      14.64279845      40.00000000      41.80856847
        43.78290695      42.35919150      47.03049181      55.20732241      56.90428423      58.12620757      52.56522396      28.85838143      -0.28774671      -7.84926709
     -9999.00000000   -9999.00000000   -9999.00000000   -9999.00000000   -9999.00000000   -9999.00000000   -9999.00000000   -9999.00000000   -9999.00000000   -9999.00000000   -9999.00000000   -9999.00000000   -9999.00000000   -9999.00000000   -9999.00000000   -9999.00000000   -9999.00000000     539.38002273     533.92655579     463.21595349
       442.49575965     444.73486381     383.50881019     407.42157512     448.43407604     371.09726616     339.63103786     323.37862272     336.76159585     338.12878746     356.24662440     440.13899766     441.62517808     352.54052290     303.29551793     366.81582826     378.57842488     373.55158348     390.77029597     430.10876630
       480.57956444     544.33267959     608.71200231     741.02068084     761.07377370     830.63560770     822.57020463     662.10578718     535.90583463     440.65625982     360.88983369     295.62609751     277.03687249     258.55733320     235.73346380     197.19143153     259.26380522     333.89425314     347.46622830     335.77678672
       327.21241315     291.84883092     364.67200031     301.07901482     230.68037095     227.41534482     311.82006861     413.61274620     439.50380079     363.63188825     411.66207929     498.02765147     457.61857727     394.04052290     319.05121297     307.53447171     361.81011886     331.37766226     351.62104779     282.77033699
       251.56544339     291.43650554     349.53093136     227.08034579     262.82913925     360.86446134     450.98384868     351.66065056     396.71163180     530.48056878     583.29879783     502.85547205     490.22166289     541.96526785     511.60710584     542.26878590     615.37980260     566.57728532     615.62439673     594.51287143
       496.48919986     436.48377963     373.59962662     284.47883928     233.18424078     222.17484065     225.01578081     198.29879783     216.37482192     270.03344221     261.30373818     248.54170278     175.90218422     144.42371545     135.78784730     177.24570497     125.67709105     136.06227356     115.17683060     121.87862272
       109.71569304      84.73169398      91.46113756      87.41888516      74.61514699      63.78290695      56.67001036      45.44384668      28.97986878      22.62620757      20.00000000      14.99446971      11.27254637       7.94937697       3.77254637       1.09118403       3.04286976      16.96242751      42.25241514      50.45490726
        48.77254637      48.65186909      56.27254637      50.00000000      56.52013122      56.74205456      46.81763910      45.50000000       4.48508576      -5.56702529
     -9999.00000000   -9999.00000000   -9999.00000000   -9999.00000000   -9999.00000000   -9999.00000000   -9999.00000000   -9999.00000000   -9999.00000000   -9999.00000000   -9999.00000000   -9999.00000000   -9999.00000000   -9999.00000000   -9999.00000000   -9999.00000000   -9999.00000000     479.16518007     491.38452352     456.68590124
       499.64891869     525.67458020     495.45280725     428.99704960     481.80148778     434.87471186     417.01423042     367.44502656     330.11385704     407.01375054     411.40867497     442.98749908     445.21676356     387.40572456     300.78290695     371.92721548     372.16050017     366.57757449     436.72096289     441.96139801
       474.60817636     509.81291888     608.53561127     716.38105222     837.30830802     850.14987914     797.96364841     632.38198395     520.43208609     482.66694990     397.46869813     347.88743290     317.10080650     267.90100434     233.81269875     197.87309242     261.52610107     340.24146462     334.09044592     294.52039167
       300.27844717     281.19696183     335.39038331     292.12292768     265.03912289     229.97407803     310.14677835     349.81420883     413.68929120     404.10891669     390.96725780     447.77099597     431.66389013     376.64884964     336.62583706     377.55353241     418.83352998     367.39252364     303.65040004     355.69349053
       388.10054605     376.38190261     374.10408640     246.61514699     350.97816800     462.32135856     499.37239242     410.85867060     543.56164260     603.55106259     608.33449043     512.70688285     552.63442782     583.85270075     601.18822068     613.78474652     674.87084202     662.15271948     598.85687206     537.31505921
       487.51261098     448.34308049     351.71326353     318.34846040     288.14390929     220.38570340     267.03646166     268.70850229     267.45549720     258.39875394     258.20732241     260.72192334     231.99247976     182.44115672     145.35945195     125.33777033     123.60452595     170.70039211     187.18225083     144.31693910
       111.24500497      81.75241514      81.54439273      68.50553029      72.27125642      67.28290695      66.51036058      56.34260062      33.49446971      24.04509274      20.32316940      15.72192334      11.09571577       9.04509274       4.94937697       1.04997375       1.44400430       2.91759419      44.72745363      48.95490726
        48.70732241      54.53473215      47.55062303      49.91888516      46.69143153      40.39875394      43.18789119      46.14080850      36.04509274       2.01027594
     -9999.00000000   -9999.00000000   -9999.00000000   -9999.00000000   -9999.00000000   -9999.00000000   -9999.00000000   -9999.00000000   -9999.00000000   -9999.00000000   -9999.00000000   -9999.00000000   -9999.00000000   -9999.00000000   -9999.00000000   -9999.00000000   -9999.00000000     461.11160664     467.12325717     521.67232981
       563.89838343     590.26266566     523.81634916     505.91298436     538.41368436     543.13715809     511.30152810     475.61772688     378.39975471     320.58251484     345.91018504     350.26524625     372.49586972     363.56861392     347.87110247     290.48963942     346.29009770     332.94974748     359.49457977     365.02662197