BEGIN options
END options

BEGIN griddata
  icelltype
    CONSTANT  0
  k  LAYERED
    INTERNAL  FACTOR  1.0
      1.75660169E-07  1.75660169E-07  1.75660169E-07  1.75660169E-07  1.75660169E-07  1.75660169E-07  1.75660169E-07  1.75660169E-07  1.75660169E-07  1.75660169E-07  1.75660169E-07  1.75660169E-07  1.75660169E-07  1.75660169E-07  1.75660169E-07  1.75660169E-07  1.75660169E-07  1.75660169E-07  1.75660169E-07  1.75660169E-07
      1.75660169E-07  1.75660169E-07  1.75660169E-07  1.75660169E-07  1.75660169E-07  1.75660169E-07  1.75660169E-07  1.75660169E-07  1.75660169E-07  1.75660169E-07  1.75660169E-07  1.75660169E-07  1.75660169E-07  1.75660169E-07  1.75660169E-07  1.75660169E-07  1.75660169E-07  1.75660169E-07  1.75660169E-07  1.75660169E-07
      1.75660169E-07  1.75660169E-07  1.75660169E-07  1.75660169E-07  1.75660169E-07  1.75660169E-07  1.75660169E-07  1.75660169E-07  1.75660169E-07  1.75660169E-07  1.75660169E-07  1.75660169E-07  1.75660169E-07  1.75660169E-07  1.75660169E-07  1.75660169E-07  1.75660169E-07  1.75660169E-07  1.75660169E-07  1.75660169E-07
      1.75660169E-07  1.75660169E-07  1.75660169E-07  1.75660169E-07  1.75660169E-07  1.75660169E-07  1.75660169E-07  1.75660169E-07  1.75660169E-07  1.75660169E-07  1.75660169E-07  1.75660169E-07  1.75660169E-07  1.75660169E-07  1.75660169E-07  1.75660169E-07  1.75660169E-07  1.75660169E-07  1.75660169E-07  1.75660169E-07
      1.75660169E-07  1.75660169E-07  1.75660169E-07  1.75660169E-07  1.75660169E-07  1.75660169E-07  1.75660169E-07  1.75660169E-07  1.75660169E-07  1.75660169E-07  1.75660169E-07  1.75660169E-07  1.75660169E-07  1.75660169E-07  1.75660169E-07  1.75660169E-07  1.75660169E-07  1.75660169E-07  1.75660169E-07  1.75660169E-07
      1.75660169E-07  1.75660169E-07  1.75660169E-07  1.75660169E-07  1.75660169E-07  1.75660169E-07  1.75660169E-07  1.75660169E-07  1.75660169E-07  1.75660169E-07  1.75660169E-07  1.75660169E-07  1.75660169E-07  1.75660169E-07  1.75660169E-07  1.75660169E-07  1.75660169E-07  1.75660169E-07  1.75660169E-07  1.75660169E-07
      1.75660169E-07  1.75660169E-07  1.75660169E-07  1.75660169E-07  1.75660169E-07  1.75660169E-07  1.75660169E-07  1.75660169E-07  1.75660169E-07  1.75660169E-07  1.75660169E-07  1.75660169E-07  1.75660169E-07  1.75660169E-07  1.75660169E-07  1.75660169E-07  1.75660169E-07  1.75660169E-07  1.75660169E-07  1.75660169E-07
      1.75660169E-07  1.75660169E-07  1.75660169E-07  1.75660169E-07  1.75660169E-07  1.75660169E-07  1.75660169E-07  1.75660169E-07  1.75660169E-07  1.75660169E-07  1.75660169E-07  1.75660169E-07  1.75660169E-07  1.75660169E-07  1.75660169E-07  1.75660169E-07  1.75660169E-07  1.75660169E-07  1.75660169E-07  1.75660169E-07
      1.75660169E-07  1.75660169E-07  1.75660169E-07  1.75660169E-07  1.75660169E-07  1.75660169E-07  1.75660169E-07  1.75660169E-07  1.75660169E-07  1.75660169E-07  1.75660169E-07  1.75660169E-07  1.75660169E-07  1.75660169E-07  1.75660169E-07  1.75660169E-07  1.75660169E-07  1.75660169E-07  1.75660169E-07  1.75660169E-07
      1.75660169E-07  1.75660169E-07  1.75660169E-07
      1.75660169E-07  1.75660169E-07  1.75660169E-07  1.75660169E-07  1.75660169E-07  1.75660169E-07  1.75660169E-07  1.75660169E-07  1.75660169E-07  1.75660169E-07  1.75660169E-07  1.75660169E-07  1.75660169E-07  1.75660169E-07  1.75660169E-07  1.75660169E-07  1.75660169E-07  1.75660169E-07  1.75660169E-07  1.75660169E-07
      1.75660169E-07  1.75660169E-07  1.75660169E-07  1.75660169E-07  1.75660169E-07  1.75660169E-07  1.75660169E-07  1.75660169E-07  1.75660169E-07  1.75660169E-07  1.75660169E-07  1.75660169E-07  1.75660169E-07  1.75660169E-07  1.75660169E-07  1.75660169E-07  1.75660169E-07  1.75660169E-07  1.75660169E-07  1.75660169E-07
      1.75660169E-07  1.75660169E-07  1.75660169E-07  1.75660169E-07  1.75660169E-07  1.75660169E-07  1.75660169E-07  1.75660169E-07  1.75660169E-07  1.75660169E-07  1.75660169E-07  1.75660169E-07  1.75660169E-07  1.75660169E-07  1.75660169E-07  1.75660169E-07  1.75660169E-07  1.75660169E-07  1.75660169E-07  1.75660169E-07
      1.75660169E-07  1.75660169E-07  1.75660169E-07  1.75660169E-07  1.75660169E-07  1.75660169E-07  1.75660169E-07  1.75660169E-07  1.75660169E-07  1.75660169E-07  1.75660169E-07  1.75660169E-07  1.75660169E-07  1.75660169E-07  1.75660169E-07  1.75660169E-07  1.75660169E-07  1.75660169E-07  1.75660169E-07  1.75660169E-07
      1.75660169E-07  1.75660169E-07  1.75660169E-07  1.75660169E-07  1.75660169E-07  1.75660169E-07  1.75660169E-07  1.75660169E-07  1.75660169E-07  1.75660169E-07  1.75660169E-07  1.75660169E-07  1.75660169E-07  1.75660169E-07  1.75660169E-07  1.75660169E-07  1.75660169E-07  1.75660169E-07  1.75660169E-07  1.75660169E-07
      1.75660169E-07  1.75660169E-07  1.75660169E-07  1.75660169E-07  1.75660169E-07  1.75660169E-07  1.75660169E-07  1.75660169E-07  1.75660169E-07  1.75660169E-07  1.75660169E-07  1.75660169E-07  1.75660169E-07  1.75660169E-07  1.75660169E-07  1.75660169E-07  1.75660169E-07  1.75660169E-07  1.75660169E-07  1.75660169E-07
      1.75660169E-07  1.75660169E-07  1.75660169E-07  1.75660169E-07  1.75660169E-07  1.75660169E-07  1.75660169E-07  1.75660169E-07  1.75660169E-07  1.75660169E-07  1.75660169E-07  1.75660169E-07  1.75660169E-07  1.75660169E-07  1.75660169E-07  1.75660169E-07  1.75660169E-07  1.75660169E-07  1.75660169E-07  1.75660169E-07
      1.75660169E-07  1.75660169E-07  1.75660169E-07  1.75660169E-07  1.75660169E-07  1.75660169E-07  1.75660169E-07  1.75660169E-07  1.75660169E-07  1.75660169E-07  1.75660169E-07  1.75660169E-07  1.75660169E-07  1.75660169E-07  1.75660169E-07  1.75660169E-07  1.75660169E-07  1.75660169E-07  1.75660169E-07  1.75660169E-07
      1.75660169E-07  1.75660169E-07  1.75660169E-07  1.75660169E-07  1.75660169E-07  1.75660169E-07  1.75660169E-07  1.75660169E-07  1.75660169E-07  1.75660169E-07  1.75660169E-07  1.75660169E-07  1.75660169E-07  1.75660169E-07  1.75660169E-07  1.75660169E-07  1.75660169E-07  1.75660169E-07  1.75660169E-07  1.75660169E-07
      1.75660169E-07  1.75660169E-07  1.75660169E-07
      1.75660169E-07  1.75660169E-07  1.75660169E-07  1.75660169E-07  1.75660169E-07  1.75660169E-07  1.75660169E-07  1.75660169E-07  1.75660169E-07  1.75660169E-07  1.75660169E-07  1.75660169E-07  1.75660169E-07  1.75660169E-07  1.75660169E-07  1.75660169E-07  1.75660169E-07  1.75660169E-07  1.75660169E-07  1.75660169E-07
      1.75660169E-07  1.75660169E-07  1.75660169E-07  1.75660169E-07  1.75660169E-07  1.75660169E-07  1.75660169E-07  1.75660169E-07  1.75660169E-07  1.75660169E-07  1.75660169E-07  1.75660169E-07  1.75660169E-07  1.75660169E-07  1.75660169E-07  1.75660169E-07  1.75660169E-07  1.75660169E-07  1.75660169E-07  1.75660169E-07
      1.75660169E-07  1.75660169E-07  1.75660169E-07  1.75660169E-07  1.75660169E-07  1.75660169E-07  1.75660169E-07  1.75660169E-07  1.75660169E-07  1.75660169E-07  1.75660169E-07  1.75660169E-07  1.75660169E-07  1.75660169E-07  1.75660169E-07  1.75660169E-07  1.75660169E-07  1.75660169E-07  1.75660169E-07  1.75660169E-07
      1.75660169E-07  1.75660169E-07  1.75660169E-07  1.75660169E-07  1.75660169E-07  1.75660169E-07  1.75660169E-07  1.75660169E-07  1.75660169E-07  1.75660169E-07  1.75660169E-07  1.75660169E-07  1.75660169E-07  1.75660169E-07  1.75660169E-07  1.75660169E-07  1.75660169E-07  1.75660169E-07  1.75660169E-07  1.75660169E-07
      1.75660169E-07  1.75660169E-07  1.75660169E-07  1.75660169E-07  1.75660169E-07  1.75660169E-07  1.75660169E-07  1.75660169E-07  1.75660169E-07  1.75660169E-07  1.75660169E-07  1.75660169E-07  1.75660169E-07  1.75660169E-07  1.75660169E-07  1.75660169E-07  1.75660169E-07  1.75660169E-07  1.75660169E-07  1.75660169E-07
      1.75660169E-07  1.75660169E-07  1.75660169E-07  1.75660169E-07  1.75660169E-07  1.75660169E-07  1.75660169E-07  1.75660169E-07  1.75660169E-07  1.75660169E-07  1.75660169E-07  1.75660169E-07  1.75660169E-07  1.75660169E-07  1.75660169E-07  1.75660169E-07  1.75660169E-07  1.75660169E-07  1.75660169E-07  1.75660169E-07
      1.75660169E-07  1.75660169E-07  1.75660169E-07  1.75660169E-07  1.75660169E-07  1.75660169E-07  1.75660169E-07  1.75660169E-07  1.75660169E-07  1.75660169E-07  1.75660169E-07  1.75660169E-07  1.75660169E-07  1.75660169E-07  1.75660169E-07  1.75660169E-07  1.75660169E-07  1.75660169E-07  1.75660169E-07  1.75660169E-07
      1.75660169E-07  1.75660169E-07  1.75660169E-07  1.75660169E-07  1.75660169E-07  1.75660169E-07  1.75660169E-07  1.75660169E-07  1.75660169E-07  1.75660169E-07  1.75660169E-07  1.75660169E-07  1.75660169E-07  1.75660169E-07  1.75660169E-07  1.75660169E-07  1.75660169E-07  1.75660169E-07  1.75660169E-07  1.75660169E-07
      1.75660169E-07  1.75660169E-07  1.75660169E-07  1.75660169E-07  1.75660169E-07  1.75660169E-07  1.75660169E-07  1.75660169E-07  1.75660169E-07  1.75660169E-07  1.75660169E-07  1.75660169E-07  1.75660169E-07  1.75660169E-07  1.75660169E-07  1.75660169E-07  1.75660169E-07  1.75660169E-07  1.75660169E-07  1.75660169E-07
      1.75660169E-07  1.75660169E-07  1.75660169E-07
      1.75660169E-07  1.75660169E-07  1.75660169E-07  1.75660169E-07  1.75660169E-07  1.75660169E-07  1.75660169E-07  1.75660169E-07  1.75660169E-07  1.75660169E-07  1.75660169E-07  1.75660169E-07  1.75660169E-07  1.75660169E-07  1.75660169E-07  1.75660169E-07  1.75660169E-07  1.75660169E-07  1.75660169E-07  1.75660169E-07
      1.75660169E-07  1.75660169E-07  1.75660169E-07  1.75660169E-07  1.75660169E-07  1.75660169E-07  1.75660169E-07  1.75660169E-07  1.75660169E-07  1.75660169E-07  1.75660169E-07  1.75660169E-07  1.75660169E-07  1.75660169E-07  1.75660169E-07  1.75660169E-07  1.75660169E-07  1.75660169E-07  1.75660169E-07  1.75660169E-07
      1.75660169E-07  1.75660169E-07  1.75660169E-07  1.75660169E-07  1.75660169E-07  1.75660169E-07  1.75660169E-07  1.75660169E-07  1.75660169E-07  1.75660169E-07  1.75660169E-07  1.75660169E-07  1.75660169E-07  1.75660169E-07  1.75660169E-07  1.75660169E-07  1.75660169E-07  1.75660169E-07  1.75660169E-07  1.75660169E-07
      1.75660169E-07  1.75660169E-07  1.75660169E-07  1.75660169E-07  1.75660169E-07  1.75660169E-07  1.75660169E-07  1.75660169E-07  1.75660169E-07  1.75660169E-07  1.75660169E-07  1.75660169E-07  1.75660169E-07  1.75660169E-07  1.75660169E-07  1.75660169E-07  1.75660169E-07  1.75660169E-07  1.75660169E-07  1.75660169E-07
      1.75660169E-07  1.75660169E-07  1.75660169E-07  1.75660169E-07  1.75660169E-07  1.75660169E-07  1.75660169E-07  1.75660169E-07  1.75660169E-07  1.75660169E-07  1.75660169E-07  1.75660169E-07  1.75660169E-07  1.75660169E-07  1.75660169E-07  1.75660169E-07  1.75660169E-07  1.75660169E-07  1.75660169E-07  1.75660169E-07
      1.75660169E-07  1.75660169E-07  1.75660169E-07  1.75660169E-07  1.75660169E-07  1.75660169E-07  1.75660169E-07  1.75660169E-07  1.75660169E-07  1.75660169E-07  1.75660169E-07  1.75660169E-07  1.75660169E-07  1.75660169E-07  1.75660169E-07  1.75660169E-07  1.75660169E-07  1.75660169E-07  1.75660169E-07  1.75660169E-07
      1.75660169E-07  1.75660169E-07  1.75660169E-07  1.75660169E-07  1.75660169E-07  1.75660169E-07  1.75660169E-07  1.75660169E-07  1.75660169E-07  1.75660169E-07  1.75660169E-07  1.75660169E-07  1.75660169E-07  1.75660169E-07  1.75660169E-07  1.75660169E-07  1.75660169E-07  1.75660169E-07  1.75660169E-07  1.75660169E-07
      1.75660169E-07  1.75660169E-07  1.75660169E-07  1.75660169E-07  1.75660169E-07  1.75660169E-07  1.75660169E-07  1.75660169E-07  1.75660169E-07  1.75660169E-07  1.75660169E-07  1.75660169E-07  1.75660169E-07  1.75660169E-07  1.75660169E-07  1.75660169E-07  1.75660169E-07  1.75660169E-07  1.75660169E-07  1.75660169E-07
      1.75660169E-07  1.75660169E-07  1.75660169E-07  1.75660169E-07  1.75660169E-07  1.75660169E-07  1.75660169E-07  1.75660169E-07  1.75660169E-07  1.75660169E-07  1.75660169E-07  1.75660169E-07  1.75660169E-07  1.75660169E-07  1.75660169E-07  1.75660169E-07  1.75660169E-07  1.75660169E-07  1.75660169E-07  1.75660169E-07
      1.75660169E-07  1.75660169E-07  1.75660169E-07
      1.75660169E-07  1.75660169E-07  1.75660169E-07  1.75660169E-07  1.75660169E-07  1.75660169E-07  1.75660169E-07  1.75660169E-07  1.75660169E-07  1.75660169E-07  1.75660169E-07  1.75660169E-07  1.75660169E-07  1.75660169E-07  1.75660169E-07  1.75660169E-07  1.75660169E-07  1.75660169E-07  1.75660169E-07  1.75660169E-07
      1.75660169E-07  1.75660169E-07  1.75660169E-07  1.75660169E-07  1.75660169E-07  1.75660169E-07  1.75660169E-07  1.75660169E-07  1.75660169E-07  1.75660169E-07  1.75660169E-07  1.75660169E-07  1.75660169E-07  1.75660169E-07  1.75660169E-07  1.75660169E-07  1.75660169E-07  1.75660169E-07  1.75660169E-07  1.75660169E-07
      1.75660169E-07  1.75660169E-07  1.75660169E-07  1.75660169E-07  1.75660169E-07  1.75660169E-07  1.75660169E-07  1.75660169E-07  1.75660169E-07  1.75660169E-07  1.75660169E-07  1.75660169E-07  1.75660169E-07  1.75660169E-07  1.75660169E-07  1.75660169E-07  1.75660169E-07  1.75660169E-07  1.75660169E-07  1.75660169E-07
      1.75660169E-07  1.75660169E-07  1.75660169E-07  1.75660169E-07  1.75660169E-07  1.75660169E-07  1.75660169E-07  1.75660169E-07  1.75660169E-07  1.75660169E-07  1.75660169E-07  1.75660169E-07  1.75660169E-07  1.75660169E-07  1.75660169E-07  1.75660169E-07  1.75660169E-07  1.75660169E-07  1.75660169E-07  1.75660169E-07
      1.75660169E-07  1.75660169E-07  1.75660169E-07  1.75660169E-07  1.75660169E-07  1.75660169E-07  1.75660169E-07  1.75660169E-07  1.75660169E-07  1.75660169E-07  1.75660169E-07  1.75660169E-07  1.75660169E-07  1.75660169E-07  1.75660169E-07  1.75660169E-07  1.75660169E-07  1.75660169E-07  1.75660169E-07  1.75660169E-07
      1.75660169E-07  1.75660169E-07  1.75660169E-07  1.75660169E-07  1.75660169E-07  1.75660169E-07  1.75660169E-07  1.75660169E-07  1.75660169E-07  1.75660169E-07  1.75660169E-07  1.75660169E-07  1.75660169E-07  1.75660169E-07  1.75660169E-07  1.75660169E-07  1.75660169E-07  1.75660169E-07  1.75660169E-07  1.75660169E-07
      1.75660169E-07  1.75660169E-07  1.75660169E-07  1.75660169E-07  1.75660169E-07  1.75660169E-07  1.75660169E-07  1.75660169E-07  1.75660169E-07  1.75660169E-07  1.75660169E-07  1.75660169E-07  1.75660169E-07  1.75660169E-07  1.75660169E-07  1.75660169E-07  1.75660169E-07  1.75660169E-07  1.75660169E-07  1.75660169E-07
      1.75660169E-07  1.75660169E-07  1.75660169E-07  1.75660169E-07  1.75660169E-07  1.75660169E-07  1.75660169E-07  1.75660169E-07  1.75660169E-07  1.75660169E-07  1.75660169E-07  1.75660169E-07  1.75660169E-07  1.75660169E-07  1.75660169E-07  1.75660169E-07  1.75660169E-07  1.75660169E-07  1.75660169E-07  1.75660169E-07
      1.75660169E-07  1.75660169E-07  1.75660169E-07  1.75660169E-07  1.75660169E-07  1.75660169E-07  1.75660169E-07  1.75660169E-07  1.75660169E-07  1.75660169E-07  1.75660169E-07  1.75660169E-07  1.75660169E-07  1.75660169E-07  1.75660169E-07  1.75660169E-07  1.75660169E-07  1.75660169E-07  1.75660169E-07  1.75660169E-07
      1.75660169E-07  1.75660169E-07  1.75660169E-07
      1.75660169E-07  1.75660169E-07  1.75660169E-07  1.75660169E-07  1.75660169E-07  1.75660169E-07  1.75660169E-07  1.75660169E-07  1.75660169E-07  1.75660169E-07  1.75660169E-07  1.75660169E-07  1.75660169E-07  1.75660169E-07  1.75660169E-07  1.75660169E-07  1.75660169E-07  1.75660169E-07  1.75660169E-07  1.75660169E-07
      1.75660169E-07  1.75660169E-07  1.75660169E-07  1.75660169E-07  1.75660169E-07  1.75660169E-07  1.75660169E-07  1.75660169E-07  1.75660169E-07  1.75660169E-07  1.75660169E-07  1.75660169E-07  1.75660169E-07  1.75660169E-07  1.75660169E-07  1.75660169E-07  1.75660169E-07  1.75660169E-07  1.75660169E-07  1.75660169E-07
      1.75660169E-07  1.75660169E-07  1.75660169E-07  1.75660169E-07  1.75660169E-07  1.75660169E-07  1.75660169E-07  1.75660169E-07  1.75660169E-07  1.75660169E-07  1.75660169E-07  1.75660169E-07  1.75660169E-07  1.75660169E-07  1.75660169E-07  1.75660169E-07  1.75660169E-07  1.75660169E-07  1.75660169E-07  1.75660169E-07
      1.75660169E-07  1.75660169E-07  1.75660169E-07  1.75660169E-07  1.75660169E-07  1.75660169E-07  1.75660169E-07  1.75660169E-07  1.75660169E-07  1.75660169E-07  1.75660169E-07  1.75660169E-07  1.75660169E-07  1.75660169E-07  1.75660169E-07  1.75660169E-07  1.75660169E-07  1.75660169E-07  1.75660169E-07  1.75660169E-07
      1.75660169E-07  1.75660169E-07  1.75660169E-07  1.75660169E-07  1.75660169E-07  1.75660169E-07  1.75660169E-07  1.75660169E-07  1.75660169E-07  1.75660169E-07  1.75660169E-07  1.75660169E-07  1.75660169E-07  1.75660169E-07  1.75660169E-07  1.75660169E-07  1.75660169E-07  1.75660169E-07  1.75660169E-07  1.75660169E-07
      1.75660169E-07  1.75660169E-07  1.75660169E-07  1.75660169E-07  1.75660169E-07  1.75660169E-07  1.75660169E-07  1.75660169E-07  1.75660169E-07  1.75660169E-07  1.75660169E-07  1.75660169E-07  1.75660169E-07  1.75660169E-07  1.75660169E-07  1.75660169E-07  1.75660169E-07  1.75660169E-07  1.75660169E-07  1.75660169E-07
      1.75660169E-07  1.75660169E-07  1.75660169E-07  1.75660169E-07  1.75660169E-07  1.75660169E-07  1.75660169E-07  1.75660169E-07  1.75660169E-07  1.75660169E-07  1.75660169E-07  1.75660169E-07  1.75660169E-07  1.75660169E-07  1.75660169E-07  1.75660169E-07  1.75660169E-07  1.75660169E-07  1.75660169E-07  1.75660169E-07
      1.75660169E-07  1.75660169E-07  1.75660169E-07  1.75660169E-07  1.75660169E-07  1.75660169E-07  1.75660169E-07  1.75660169E-07  1.75660169E-07  1.75660169E-07  1.75660169E-07  1.75660169E-07  1.75660169E-07  1.75660169E-07  1.75660169E-07  1.75660169E-07  1.75660169E-07  1.75660169E-07  1.75660169E-07  1.75660169E-07
      1.75660169E-07  1.75660169E-07  1.75660169E-07  1.75660169E-07  1.75660169E-07  1.75660169E-07  1.75660169E-07  1.75660169E-07  1.75660169E-07  1.75660169E-07  1.75660169E-07  1.75660169E-07  1.75660169E-07  1.75660169E-07  1.75660169E-07  1.75660169E-07  1.75660169E-07  1.75660169E-07  1.75660169E-07  1.75660169E-07
      1.75660169E-07  1.75660169E-07  1.75660169E-07
      1.75660169E-07  1.75660169E-07  1.75660169E-07  1.75660169E-07  1.75660169E-07  1.75660169E-07  1.75660169E-07  1.75660169E-07  1.75660169E-07  1.75660169E-07  1.75660169E-07  1.75660169E-07  1.75660169E-07  1.75660169E-07  1.75660169E-07  1.75660169E-07  1.75660169E-07  1.75660169E-07  1.75660169E-07  1.75660169E-07
      1.75660169E-07  1.75660169E-07  1.75660169E-07  1.75660169E-07  1.75660169E-07  1.75660169E-07  1.75660169E-07  1.75660169E-07  1.75660169E-07  1.75660169E-07  1.75660169E-07  1.75660169E-07  1.75660169E-07  1.75660169E-07  1.75660169E-07  1.75660169E-07  1.75660169E-07  1.75660169E-07  1.75660169E-07  1.75660169E-07
      1.75660169E-07  1.75660169E-07  1.75660169E-07  1.75660169E-07  1.75660169E-07  1.75660169E-07  1.75660169E-07  1.75660169E-07  1.75660169E-07  1.75660169E-07  1.75660169E-07  1.75660169E-07  1.75660169E-07  1.75660169E-07  1.75660169E-07  1.75660169E-07  1.75660169E-07  1.75660169E-07  1.75660169E-07  1.75660169E-07
      1.75660169E-07  1.75660169E-07  1.75660169E-07  1.75660169E-07  1.75660169E-07  1.75660169E-07  1.75660169E-07  1.75660169E-07  1.75660169E-07  1.75660169E-07  1.75660169E-07  1.75660169E-07  1.75660169E-07  1.75660169E-07  1.75660169E-07  1.75660169E-07  1.75660169E-07  1.75660169E-07  1.75660169E-07  1.75660169E-07
      1.75660169E-07  1.75660169E-07  1.75660169E-07  1.75660169E-07  1.75660169E-07  1.75660169E-07  1.75660169E-07  1.75660169E-07  1.75660169E-07  1.75660169E-07  1.75660169E-07  1.75660169E-07  1.75660169E-07  1.75660169E-07  1.75660169E-07  1.75660169E-07  1.75660169E-07  1.75660169E-07  1.75660169E-07  1.75660169E-07
      1.75660169E-07  1.75660169E-07  1.75660169E-07  1.75660169E-07  1.75660169E-07  1.75660169E-07  1.75660169E-07  1.75660169E-07  1.75660169E-07  1.75660169E-07  1.75660169E-07  1.75660169E-07  1.75660169E-07  1.75660169E-07  1.75660169E-07  1.75660169E-07  1.75660169E-07  1.75660169E-07  1.75660169E-07  1.75660169E-07
      1.75660169E-07  1.75660169E-07  1.75660169E-07  1.75660169E-07  1.75660169E-07  1.75660169E-07  1.75660169E-07  1.75660169E-07  1.75660169E-07  1.75660169E-07  1.75660169E-07  1.75660169E-07  1.75660169E-07  1.75660169E-07  1.75660169E-07  1.75660169E-07  1.75660169E-07  1.75660169E-07  1.75660169E-07  1.75660169E-07
      1.75660169E-07  1.75660169E-07  1.75660169E-07  1.75660169E-07  1.75660169E-07  1.75660169E-07  1.75660169E-07  1.75660169E-07  1.75660169E-07  1.75660169E-07  1.75660169E-07  1.75660169E-07  1.75660169E-07  1.75660169E-07  1.75660169E-07  1.75660169E-07  1.75660169E-07  1.75660169E-07  1.75660169E-07  1.75660169E-07
      1.75660169E-07  1.75660169E-07  1.75660169E-07  1.75660169E-07  1.75660169E-07  1.75660169E-07  1.75660169E-07  1.75660169E-07  1.75660169E-07  1.75660169E-07  1.75660169E-07  1.75660169E-07  1.75660169E-07  1.75660169E-07  1.75660169E-07  1.75660169E-07  1.75660169E-07  1.75660169E-07  1.75660169E-07  1.75660169E-07
      1.75660169E-07  1.75660169E-07  1.75660169E-07
      1.75660169E-07  1.75660169E-07  1.75660169E-07  1.75660169E-07  1.75660169E-07  1.75660169E-07  1.75660169E-07  1.75660169E-07  1.75660169E-07  1.75660169E-07  1.75660169E-07  1.75660169E-07  1.75660169E-07  1.75660169E-07  1.75660169E-07  1.75660169E-07  1.75660169E-07  1.75660169E-07  1.75660169E-07  1.75660169E-07
      1.75660169E-07  1.75660169E-07  1.75660169E-07  1.75660169E-07  1.75660169E-07  1.75660169E-07  1.75660169E-07  1.75660169E-07  1.75660169E-07  1.75660169E-07  1.75660169E-07  1.75660169E-07  1.75660169E-07  1.75660169E-07  1.75660169E-07  1.75660169E-07  1.75660169E-07  1.75660169E-07  1.75660169E-07  1.75660169E-07
      1.75660169E-07  1.75660169E-07  1.75660169E-07  1.75660169E-07  1.75660169E-07  1.75660169E-07  1.75660169E-07  1.75660169E-07  1.75660169E-07  1.75660169E-07  1.75660169E-07  1.75660169E-07  1.75660169E-07  1.75660169E-07  1.75660169E-07  1.75660169E-07  1.75660169E-07  1.75660169E-07  1.75660169E-07  1.75660169E-07
      1.75660169E-07  1.75660169E-07  1.75660169E-07  1.75660169E-07  1.75660169E-07  1.75660169E-07  1.75660169E-07  1.75660169E-07  1.75660169E-07  1.75660169E-07  1.75660169E-07  1.75660169E-07  1.75660169E-07  1.75660169E-07  1.75660169E-07  1.75660169E-07  1.75660169E-07  1.75660169E-07  1.75660169E-07  1.75660169E-07
      1.75660169E-07  1.75660169E-07  1.75660169E-07  1.75660169E-07  1.75660169E-07  1.75660169E-07  1.75660169E-07  1.75660169E-07  1.75660169E-07  1.75660169E-07  1.75660169E-07  1.75660169E-07  1.75660169E-07  1.75660169E-07  1.75660169E-07  1.75660169E-07  1.75660169E-07  1.75660169E-07  1.75660169E-07  1.75660169E-07
      1.75660169E-07  1.75660169E-07  1.75660169E-07  1.75660169E-07  1.75660169E-07  1.75660169E-07  1.75660169E-07  1.75660169E-07  1.75660169E-07  1.75660169E-07  1.75660169E-07  1.75660169E-07  1.75660169E-07  1.75660169E-07  1.75660169E-07  1.75660169E-07  1.75660169E-07  1.75660169E-07  1.75660169E-07  1.75660169E-07
      1.75660169E-07  1.75660169E-07  1.75660169E-07  1.75660169E-07  1.75660169E-07  1.75660169E-07  1.75660169E-07  1.75660169E-07  1.75660169E-07  1.75660169E-07  1.75660169E-07  1.75660169E-07  1.75660169E-07  1.75660169E-07  1.75660169E-07  1.75660169E-07  1.75660169E-07  1.75660169E-07  1.75660169E-07  1.75660169E-07
      1.75660169E-07  1.75660169E-07  1.75660169E-07  1.75660169E-07  1.75660169E-07  1.75660169E-07  1.75660169E-07  1.75660169E-07  1.75660169E-07  1.75660169E-07  1.75660169E-07  1.75660169E-07  1.75660169E-07  1.75660169E-07  1.75660169E-07  1.75660169E-07  1.75660169E-07  1.75660169E-07  1.75660169E-07  1.75660169E-07
      1.75660169E-07  1.75660169E-07  1.75660169E-07  1.75660169E-07  1.75660169E-07  1.75660169E-07  1.75660169E-07  1.75660169E-07  1.75660169E-07  1.75660169E-07  1.75660169E-07  1.75660169E-07  1.75660169E-07  1.75660169E-07  1.75660169E-07  1.75660169E-07  1.75660169E-07  1.75660169E-07  1.75660169E-07  1.75660169E-07
      1.75660169E-07  1.75660169E-07  1.75660169E-07
      1.75660169E-07  1.75660169E-07  1.75660169E-07  1.75660169E-07  1.75660169E-07  1.75660169E-07  1.75660169E-07  1.75660169E-07  1.75660169E-07  1.75660169E-07  1.75660169E-07  1.75660169E-07  1.75660169E-07  1.75660169E-07  1.75660169E-07  1.75660169E-07  1.75660169E-07  1.75660169E-07  1.75660169E-07  1.75660169E-07
      1.75660169E-07  1.75660169E-07  1.75660169E-07  1.75660169E-07  1.75660169E-07  1.75660169E-07  1.75660169E-07  1.75660169E-07  1.75660169E-07  1.75660169E-07  1.75660169E-07  1.75660169E-07  1.75660169E-07  1.75660169E-07  1.75660169E-07  1.75660169E-07  1.75660169E-07  1.75660169E-07  1.75660169E-07  1.75660169E-07
      1.75660169E-07  1.75660169E-07  1.75660169E-07  1.75660169E-07  1.75660169E-07  1.75660169E-07  1.75660169E-07  1.75660169E-07  1.75660169E-07  1.75660169E-07  1.75660169E-07  1.75660169E-07  1.75660169E-07  1.75660169E-07  1.75660169E-07  1.75660169E-07  1.75660169E-07  1.75660169E-07  1.75660169E-07  1.75660169E-07
      1.75660169E-07  1.75660169E-07  1.75660169E-07  1.75660169E-07  1.75660169E-07  1.75660169E-07  1.75660169E-07  1.75660169E-07  1.75660169E-07  1.75660169E-07  1.75660169E-07  1.75660169E-07  1.75660169E-07  1.75660169E-07  1.75660169E-07  1.75660169E-07  1.75660169E-07  1.75660169E-07  1.75660169E-07  1.75660169E-07
      1.75660169E-07  1.75660169E-07  1.75660169E-07  1.75660169E-07  1.75660169E-07  1.75660169E-07  1.75660169E-07  1.75660169E-07  1.75660169E-07  1.75660169E-07  1.75660169E-07  1.75660169E-07  1.75660169E-07  1.75660169E-07  1.75660169E-07  1.75660169E-07  1.75660169E-07  1.75660169E-07  1.75660169E-07  1.75660169E-07
      1.75660169E-07  1.75660169E-07  1.75660169E-07  1.75660169E-07  1.75660169E-07  1.75660169E-07  1.75660169E-07  1.75660169E-07  1.75660169E-07  1.75660169E-07  1.75660169E-07  1.75660169E-07  1.75660169E-07  1.75660169E-07  1.75660169E-07  1.75660169E-07  1.75660169E-07  1.75660169E-07  1.75660169E-07  1.75660169E-07
      1.75660169E-07  1.75660169E-07  1.75660169E-07  1.75660169E-07  1.75660169E-07  1.75660169E-07  1.75660169E-07  1.75660169E-07  1.75660169E-07  1.75660169E-07  1.75660169E-07  1.75660169E-07  1.75660169E-07  1.75660169E-07  1.75660169E-07  1.75660169E-07  1.75660169E-07  1.75660169E-07  1.75660169E-07  1.75660169E-07
      1.75660169E-07  1.75660169E-07  1.75660169E-07  1.75660169E-07  1.75660169E-07  1.75660169E-07  1.75660169E-07  1.75660169E-07  1.75660169E-07  1.75660169E-07  1.75660169E-07  1.75660169E-07  1.75660169E-07  1.75660169E-07  1.75660169E-07  1.75660169E-07  1.75660169E-07  1.75660169E-07  1.75660169E-07  1.75660169E-07
      1.75660169E-07  1.75660169E-07  1.75660169E-07  1.75660169E-07  1.75660169E-07  1.75660169E-07  1.75660169E-07  1.75660169E-07  1.75660169E-07  1.75660169E-07  1.75660169E-07  1.75660169E-07  1.75660169E-07  1.75660169E-07  1.75660169E-07  1.75660169E-07  1.75660169E-07  1.75660169E-07  1.75660169E-07  1.75660169E-07
      1.75660169E-07  1.75660169E-07  1.75660169E-07
      1.75660169E-07  1.75660169E-07  1.75660169E-07  1.75660169E-07  1.75660169E-07  1.75660169E-07  1.75660169E-07  1.75660169E-07  1.75660169E-07  1.75660169E-07  1.75660169E-07  1.75660169E-07  1.75660169E-07  1.75660169E-07  1.75660169E-07  1.75660169E-07  1.75660169E-07  1.75660169E-07  1.75660169E-07  1.75660169E-07
      1.75660169E-07  1.75660169E-07  1.75660169E-07  1.75660169E-07  1.75660169E-07  1.75660169E-07  1.75660169E-07  1.75660169E-07  1.75660169E-07  1.75660169E-07  1.75660169E-07  1.75660169E-07  1.75660169E-07  1.75660169E-07  1.75660169E-07  1.75660169E-07  1.75660169E-07  1.75660169E-07  1.75660169E-07  1.75660169E-07
      1.75660169E-07  1.75660169E-07  1.75660169E-07  1.75660169E-07  1.75660169E-07  1.75660169E-07  1.75660169E-07  1.75660169E-07  1.75660169E-07  1.75660169E-07  1.75660169E-07  1.75660169E-07  1.75660169E-07  1.75660169E-07  1.75660169E-07  1.75660169E-07  1.75660169E-07  1.75660169E-07  1.75660169E-07  1.75660169E-07
      1.75660169E-07  1.75660169E-07  1.75660169E-07  1.75660169E-07  1.75660169E-07  1.75660169E-07  1.75660169E-07  1.75660169E-07  1.75660169E-07  1.75660169E-07  1.75660169E-07  1.75660169E-07  1.75660169E-07  1.75660169E-07  1.75660169E-07  1.75660169E-07  1.75660169E-07  1.75660169E-07  1.75660169E-07  1.75660169E-07
      1.75660169E-07  1.75660169E-07  1.75660169E-07  1.75660169E-07  1.75660169E-07  1.75660169E-07  1.75660169E-07  1.75660169E-07  1.75660169E-07  1.75660169E-07  1.75660169E-07  1.75660169E-07  1.75660169E-07  1.75660169E-07  1.75660169E-07  1.75660169E-07  1.75660169E-07  1.75660169E-07  1.75660169E-07  1.75660169E-07
      1.75660169E-07  1.75660169E-07  1.75660169E-07  1.75660169E-07  1.75660169E-07  1.75660169E-07  1.75660169E-07  1.75660169E-07  1.75660169E-07  1.75660169E-07  1.75660169E-07  1.75660169E-07  1.75660169E-07  1.75660169E-07  1.75660169E-07  1.75660169E-07  1.75660169E-07  1.75660169E-07  1.75660169E-07  1.75660169E-07
      1.75660169E-07  1.75660169E-07  1.75660169E-07  1.75660169E-07  1.75660169E-07  1.75660169E-07  1.75660169E-07  1.75660169E-07  1.75660169E-07  1.75660169E-07  1.75660169E-07  1.75660169E-07  1.75660169E-07  1.75660169E-07  1.75660169E-07  1.75660169E-07  1.75660169E-07  1.75660169E-07  1.75660169E-07  1.75660169E-07
      1.75660169E-07  1.75660169E-07  1.75660169E-07  1.75660169E-07  1.75660169E-07  1.75660169E-07  1.75660169E-07  1.75660169E-07  1.75660169E-07  1.75660169E-07  1.75660169E-07  1.75660169E-07  1.75660169E-07  1.75660169E-07  1.75660169E-07  1.75660169E-07  1.75660169E-07  1.75660169E-07  1.75660169E-07  1.75660169E-07
      1.75660169E-07  1.75660169E-07  1.75660169E-07  1.75660169E-07  1.75660169E-07  1.75660169E-07  1.75660169E-07  1.75660169E-07  1.75660169E-07  1.75660169E-07  1.75660169E-07  1.75660169E-07  1.75660169E-07  1.75660169E-07  1.75660169E-07  1.75660169E-07  1.75660169E-07  1.75660169E-07  1.75660169E-07  1.75660169E-07
      1.75660169E-07  1.75660169E-07  1.75660169E-07