BEGIN options
END options

BEGIN griddata
  icelltype
    CONSTANT  0
  k  LAYERED
    CONSTANT  6.20000000E-04
    CONSTANT  5.00000000E-06
    CONSTANT  3.00000000E-05
  k33  LAYERED
    CONSTANT  1.86000000E-04
    CONSTANT  1.50000000E-06
    CONSTANT  9.00000000E-06
END griddata

