BEGIN options
  SAVE_FLOWS
  SAVE_SPECIFIC_DISCHARGE
END options

BEGIN griddata
  icelltype
    CONSTANT  0
  k  LAYERED
    CONSTANT       0.00100000
    CONSTANT  1.00000000E-05
    CONSTANT       0.00100000
END griddata

