BEGIN options
  SAVE_FLOWS
END options

BEGIN griddata
  icelltype
    CONSTANT  0
  k  LAYERED
    CONSTANT  1.00000000E-06
    CONSTANT  7.62000000E-04
    CONSTANT  2.50000000E-09
    CONSTANT  2.30000000E-05
    CONSTANT  2.80000000E-05
END griddata

