BEGIN options
END options

BEGIN dimensions
  MAXBOUND  9192
END dimensions

BEGIN period  1
  1 2 144     -34.20000076       0.01000000
  1 2 145     -34.79999924       0.01000000
  1 2 146     -35.20000076       0.01000000
  1 2 147     -35.59999847       0.01000000
  1 2 148     -35.90000153       0.01000000
  1 2 149     -36.50000000       0.01000000
  1 2 150     -36.90000153       0.01000000
  1 2 151     -37.20000076       0.01000000
  1 2 152     -37.70000076       0.01000000
  1 2 153     -38.00000000       0.01000000
  1 2 154     -38.40000153       0.01000000
  1 2 155     -38.79999924       0.01000000
  1 2 156     -39.09999847       0.01000000
  1 2 157     -39.70000076       0.01000000
  1 2 158     -40.09999847       0.01000000
  1 2 159     -40.50000000       0.01000000
  1 2 160     -41.00000000       0.01000000
  1 2 161     -41.29999924       0.01000000
  1 2 162     -41.90000153       0.01000000
  1 2 163     -42.40000153       0.01000000
  1 2 164     -42.79999924       0.01000000
  1 2 165     -43.29999924       0.01000000
  1 2 166     -43.70000076       0.01000000
  1 2 167     -44.40000153       0.01000000
  1 2 168     -45.00000000       0.01000000
  1 2 169     -45.29999924       0.01000000
  1 2 170     -46.09999847       0.01000000
  1 2 171     -46.70000076       0.01000000
  1 2 172     -47.29999924       0.01000000
  1 2 173     -47.79999924       0.01000000
  1 2 174     -48.29999924       0.01000000
  1 2 175     -49.50000000       0.01000000
  1 2 176     -50.40000153       0.01000000
  1 2 177     -50.70000076       0.01000000
  1 2 178     -51.29999924       0.01000000
  1 2 179     -51.70000076       0.01000000
  1 2 180     -52.59999847       0.01000000
  1 2 181     -53.29999924       0.01000000
  1 2 182     -53.90000153       0.01000000
  1 2 183     -54.79999924       0.01000000
  1 2 184     -55.29999924       0.01000000
  1 2 185     -56.40000153       0.01000000
  1 2 186     -57.00000000       0.01000000
  1 2 187     -57.70000076       0.01000000
  1 2 188     -58.70000076       0.01000000
  1 2 189     -59.50000000       0.01000000
  1 2 190     -60.29999924       0.01000000
  1 2 191     -61.00000000       0.01000000
  1 2 192     -61.70000076       0.01000000
  1 2 193     -63.00000000       0.01000000
  1 2 194     -63.70000076       0.01000000
  1 2 195     -64.29999924       0.01000000
  1 2 196     -65.30000305       0.01000000
  1 2 197     -65.80000305       0.01000000
  1 2 198     -67.00000000       0.01000000
  1 2 199     -67.69999695       0.01000000
  1 2 200     -68.30000305       0.01000000
  1 2 201     -69.30000305       0.01000000
  1 2 202     -69.80000305       0.01000000
  1 2 203     -70.80000305       0.01000000
  1 2 204     -71.59999847       0.01000000
  1 2 205     -72.50000000       0.01000000
  1 2 206     -73.59999847       0.01000000
  1 2 207     -74.30000305       0.01000000
  1 2 208     -74.80000305       0.01000000
  1 2 209     -75.50000000       0.01000000
  1 2 210     -76.30000305       0.01000000
  1 2 211     -77.19999695       0.01000000
  1 2 212     -77.50000000       0.01000000
  1 2 213     -77.90000153       0.01000000
  1 2 214     -78.59999847       0.01000000
  1 2 215     -79.00000000       0.01000000
  1 2 216     -79.50000000       0.01000000
  1 2 217     -79.80000305       0.01000000
  1 2 218     -80.09999847       0.01000000
  1 2 219     -80.69999695       0.01000000
  1 2 220     -81.00000000       0.01000000
  1 2 221     -81.59999847       0.01000000
  1 2 222     -82.09999847       0.01000000
  1 2 223     -82.40000153       0.01000000
  1 2 224     -83.00000000       0.01000000
  1 2 225     -83.40000153       0.01000000
  1 2 226     -83.80000305       0.01000000
  1 2 227     -84.30000305       0.01000000
  1 2 228     -84.69999695       0.01000000
  1 2 229     -85.00000000       0.01000000
  1 2 230     -85.50000000       0.01000000
  1 2 231     -85.69999695       0.01000000
  1 2 232     -86.30000305       0.01000000
  1 2 233     -86.69999695       0.01000000
  1 3 143     -33.00000000       0.01000000
  3 13 125      23.00000000       0.01000000
  3 13 126      34.50000000       0.01000000
  3 13 127      31.50000000       0.01000000
  4 14 123      22.50000000       0.01000000
  3 14 124      36.00000000       0.01000000
  3 14 125      36.50000000       0.01000000
  3 14 126      45.00000000       0.01000000
  3 14 127      47.00000000       0.01000000
  3 14 128      54.00000000       0.01000000
  3 14 129      33.00000000       0.01000000
  3 15 124      38.50000000       0.01000000
  3 15 125      38.50000000       0.01000000
  3 15 126      35.50000000       0.01000000
  3 15 127      42.50000000       0.01000000
  3 15 128      47.00000000       0.01000000
  3 15 129      48.50000000       0.01000000
  3 15 130      56.00000000       0.01000000
  3 15 131      41.00000000       0.01000000
  3 15 132       0.50000000       0.01000000
  3 16 124      38.00000000       0.01000000
  3 16 125      45.50000000       0.01000000
  3 16 126      47.50000000       0.01000000
  3 16 127      45.50000000       0.01000000
  3 16 128      52.00000000       0.01000000
  3 16 129      54.50000000       0.01000000
  3 16 130      59.00000000       0.01000000
  3 16 131      58.50000000       0.01000000
  3 16 132      49.00000000       0.01000000
  3 16 133      44.50000000       0.01000000
  3 17 124      44.00000000       0.01000000
  3 17 125      48.50000000       0.01000000
  3 17 126      48.50000000       0.01000000
  3 17 127      51.50000000       0.01000000
  3 17 128      52.50000000       0.01000000
  3 17 129      50.00000000       0.01000000
  3 17 130      51.00000000       0.01000000
  3 17 131      45.50000000       0.01000000
  3 17 132      45.00000000       0.01000000
  3 17 133      43.50000000       0.01000000
  3 17 134       7.00000000       0.01000000
  3 17 135      -7.80000019       0.01000000
  3 18 124      44.00000000       0.01000000
  3 18 125      48.50000000       0.01000000
  3 18 126      50.50000000       0.01000000
  3 18 127      48.00000000       0.01000000
  3 18 128      45.00000000       0.01000000
  3 18 129      49.50000000       0.01000000
  3 18 130      47.50000000       0.01000000
  3 18 131      48.50000000       0.01000000
  3 18 132      40.00000000       0.01000000
  3 18 133      44.50000000       0.01000000
  3 18 134      35.00000000       0.01000000
  3 18 135      20.00000000       0.01000000
  3 19 125      46.50000000       0.01000000
  3 19 126      48.50000000       0.01000000
  3 19 127      44.50000000       0.01000000
  3 19 128      41.50000000       0.01000000
  3 19 129      51.00000000       0.01000000
  3 19 130      53.50000000       0.01000000
  3 19 131      52.00000000       0.01000000
  3 19 132      42.00000000       0.01000000
  3 19 133      46.50000000       0.01000000
  3 19 134      41.50000000       0.01000000
  3 20 125      47.00000000       0.01000000
  3 20 126      47.00000000       0.01000000
  3 20 127      41.50000000       0.01000000
  3 20 128      42.50000000       0.01000000
  3 20 129      43.00000000       0.01000000
  3 20 130      51.50000000       0.01000000
  3 20 131      34.50000000       0.01000000
  3 20 132      27.00000000       0.01000000
  3 20 133      30.50000000       0.01000000
  3 20 134      44.00000000       0.01000000
  3 21 127      31.00000000       0.01000000
  3 21 128      31.50000000       0.01000000
  3 21 129      43.00000000       0.01000000
  3 21 130      31.50000000       0.01000000
  3 21 131      23.00000000       0.01000000
  3 21 132      22.00000000       0.01000000
  3 21 133      28.50000000       0.01000000
  1 21 134      46.50000000       0.01000000
  3 22 129      23.50000000       0.01000000
  3 22 130      13.00000000       0.01000000
  3 22 131      14.50000000       0.01000000
  3 22 132      30.00000000       0.01000000
  1 22 133      39.50000000       0.01000000
  1 22 134      39.00000000       0.01000000
  3 23 127      25.50000000       0.01000000
  3 23 128      11.00000000       0.01000000
  3 23 129       3.00000000       0.01000000
  3 23 130       1.00000000       0.01000000
  1 23 131       8.50000000       0.01000000
  1 23 132      45.50000000       0.01000000
  1 23 133      36.50000000       0.01000000
  1 23 134       1.00000000       0.01000000
  3 24 128      13.00000000       0.01000000
  1 24 132       0.00000000       0.01000000
  1 24 133       1.50000000       0.01000000
  1 25 133       2.00000000       0.01000000
  1 26 133       3.00000000       0.01000000
  3 27 121       1.40000010       0.01000000
  3 27 122       2.50000000       0.01000000
  3 27 127       0.10000002       0.01000000
  1 27 132       0.00000000       0.01000000
  1 27 133       2.00000000       0.01000000
  3 28 120       1.00000000       0.01000000
  3 28 121       2.09999990       0.01000000
  3 28 122       2.90000010       0.01000000
  3 28 123       1.70000005       0.01000000
  3 28 124       1.70000005       0.01000000
  3 28 125       2.09999990       0.01000000
  3 28 126       1.90000010       0.01000000
  1 28 132       0.00000000       0.01000000
  1 28 133       1.50000000       0.01000000
  3 29 120       1.40000010       0.01000000
  3 29 121       2.09999990       0.01000000
  3 29 122       1.29999995       0.01000000
  3 29 123       1.40000010       0.01000000
  3 29 124       1.40000010       0.01000000
  3 29 125       1.50000000       0.01000000
  3 29 126       1.90000010       0.01000000
  1 29 132       0.00000000       0.01000000
  3 30 120       1.29999995       0.01000000
  3 30 121       2.00000000       0.01000000
  3 30 122       1.09999990       0.01000000
  3 30 123       1.09999990       0.01000000
  3 30 124       1.20000005       0.01000000
  3 30 125       1.20000005       0.01000000
  1 30 132       0.00000000       0.01000000
  3 31 120       1.20000005       0.01000000
  3 31 121       0.70000005       0.01000000
  3 31 122       0.79999995       0.01000000
  3 31 123       0.79999995       0.01000000
  1 31 132       0.00000000       0.01000000
  3 32 119       0.39999998       0.01000000
  3 32 120       0.39999998       0.01000000
  3 32 121       0.50000000       0.01000000
  3 32 122       0.50000000       0.01000000
  1 32 131       2.50000000       0.01000000
  1 32 132       0.00000000       0.01000000
  3 33 119       0.10000002       0.01000000
  3 33 120       0.10000002       0.01000000
  1 33 131       0.00000000       0.01000000
  1 33 132       0.00000000       0.01000000
  3 34 119       0.00000000       0.01000000
  1 34 130       5.50000000       0.01000000
  1 34 131       0.00000000       0.01000000
  1 34 132       1.00000000       0.01000000
  1 35 129       1.50000000       0.01000000
  1 35 130       2.00000000       0.01000000
  1 35 131       0.00000000       0.01000000
  1 35 132       0.00000000       0.01000000
  1 36 129       1.50000000       0.01000000
  1 36 130       0.00000000       0.01000000
  1 36 131       0.00000000       0.01000000
  1 37 116       1.00000000       0.01000000
  1 37 128       1.00000000       0.01000000
  1 37 129       0.00000000       0.01000000
  1 37 130       0.00000000       0.01000000
  1 37 131       0.00000000       0.01000000
  1 38 114       0.50000000       0.01000000
  1 38 115       2.00000000       0.01000000
  1 38 127       0.00000000       0.01000000
  1 38 128       0.50000000       0.01000000
  1 38 129       0.00000000       0.01000000
  1 38 130       0.00000000       0.01000000
  1 38 131       0.00000000       0.01000000
  1 39 112       1.00000000       0.01000000
  1 39 127       0.50000000       0.01000000
  1 39 128       0.00000000       0.01000000
  1 39 129       0.00000000       0.01000000
  1 39 130       0.00000000       0.01000000
  1 39 131       0.00000000       0.01000000
  1 40 110       5.50000000       0.01000000
  1 40 111       0.50000000       0.01000000
  1 40 127       0.50000000       0.01000000
  1 40 128       0.00000000       0.01000000
  1 40 129       0.00000000       0.01000000
  1 40 130       0.00000000       0.01000000
  1 40 131       0.50000000       0.01000000
  1 41 107       1.00000000       0.01000000
  1 41 108       0.50000000       0.01000000
  1 41 109       0.00000000       0.01000000
  1 41 110       2.00000000       0.01000000
  1 41 127       2.00000000       0.01000000
  1 41 128       0.00000000       0.01000000
  1 41 129       0.00000000       0.01000000
  1 41 130       0.00000000       0.01000000
  1 41 131       1.00000000       0.01000000
  3 42 106       4.00000000       0.01000000
  1 42 107       2.00000000       0.01000000
  1 42 108       2.00000000       0.01000000
  1 42 125       0.50000000       0.01000000
  1 42 128       0.00000000       0.01000000
  1 42 129       0.00000000       0.01000000
  1 42 130       0.00000000       0.01000000
  1 42 131       0.50000000       0.01000000
  3 43 103       7.50000000       0.01000000
  3 43 104      12.00000000       0.01000000
  3 43 105       8.50000000       0.01000000
  1 43 106       3.00000000       0.01000000
  1 43 107       1.50000000       0.01000000
  1 43 108       0.50000000       0.01000000
  1 43 128       0.50000000       0.01000000
  1 43 129       0.00000000       0.01000000
  1 43 130       0.00000000       0.01000000
  1 44 98      15.50000000       0.01000000
  1 44 99      13.00000000       0.01000000
  1 44 100      10.00000000       0.01000000
  1 44 101       4.00000000       0.01000000
  1 44 102       3.00000000       0.01000000
  1 44 103       3.00000000       0.01000000
  1 44 104       4.00000000       0.01000000
  1 44 105       3.00000000       0.01000000
  1 44 106       2.00000000       0.01000000
  1 44 107       1.00000000       0.01000000
  1 44 124       0.00000000       0.01000000
  1 44 127       0.00000000       0.01000000
  1 44 129       0.00000000       0.01000000
  1 44 130       0.00000000       0.01000000
  1 45 98      13.50000000       0.01000000
  1 45 99      10.50000000       0.01000000
  1 45 100       6.50000000       0.01000000
  1 45 101       3.00000000       0.01000000
  1 45 102       3.00000000       0.01000000
  1 45 103       3.00000000       0.01000000
  1 45 104       2.50000000       0.01000000
  1 45 105       1.50000000       0.01000000
  1 45 106       1.00000000       0.01000000
  1 45 127       0.00000000       0.01000000
  1 45 129       0.00000000       0.01000000
  1 45 130       0.00000000       0.01000000
  1 46 96      26.50000000       0.01000000
  1 46 97      23.00000000       0.01000000
  1 46 98       9.50000000       0.01000000
  1 46 99       7.00000000       0.01000000
  1 46 100       4.00000000       0.01000000
  1 46 101       3.00000000       0.01000000
  1 46 102       2.00000000       0.01000000
  1 46 103       2.00000000       0.01000000
  1 46 104       2.00000000       0.01000000
  1 46 105       2.00000000       0.01000000
  1 46 106       0.00000000       0.01000000
  1 46 129       0.00000000       0.01000000
  1 46 130       0.00000000       0.01000000
  1 47 96      25.00000000       0.01000000
  1 47 97      12.50000000       0.01000000
  1 47 98       3.50000000       0.01000000
  1 47 99       4.00000000       0.01000000
  1 47 100       3.50000000       0.01000000
  1 47 101       2.50000000       0.01000000
  1 47 102       1.00000000       0.01000000
  1 47 103       0.50000000       0.01000000
  1 47 104       1.00000000       0.01000000
  1 47 105       1.00000000       0.01000000
  1 47 106       0.00000000       0.01000000
  1 47 126       0.00000000       0.01000000
  1 47 127       0.00000000       0.01000000
  1 47 129       0.00000000       0.01000000
  1 47 130       0.00000000       0.01000000
  1 48 96      15.00000000       0.01000000
  1 48 97       7.50000000       0.01000000
  1 48 98       2.00000000       0.01000000
  1 48 99       3.00000000       0.01000000
  1 48 100       3.00000000       0.01000000
  1 48 101       2.50000000       0.01000000
  1 48 102       1.50000000       0.01000000
  1 48 103       0.00000000       0.01000000
  1 48 104       0.00000000       0.01000000
  1 48 105       0.00000000       0.01000000
  1 48 125       0.00000000       0.01000000
  1 48 126       0.00000000       0.01000000
  1 48 127       0.00000000       0.01000000
  1 48 128       0.50000000       0.01000000
  1 48 129       0.00000000       0.01000000
  1 48 130       0.00000000       0.01000000
  1 49 96      13.00000000       0.01000000
  1 49 97       6.50000000       0.01000000
  1 49 98       2.00000000       0.01000000
  1 49 99       3.00000000       0.01000000
  1 49 100       2.00000000       0.01000000
  1 49 101       2.00000000       0.01000000
  1 49 102       1.00000000       0.01000000
  1 49 103       1.00000000       0.01000000
  1 49 104       0.00000000       0.01000000
  1 49 129       0.00000000       0.01000000
  1 49 130       0.00000000       0.01000000
  1 50 93      37.00000000       0.01000000
  1 50 94      27.50000000       0.01000000
  1 50 95      16.00000000       0.01000000
  1 50 96      10.50000000       0.01000000
  1 50 97       3.50000000       0.01000000
  1 50 98       2.00000000       0.01000000
  1 50 99       2.00000000       0.01000000
  1 50 100       2.00000000       0.01000000
  1 50 101       2.00000000       0.01000000
  1 50 102       1.00000000       0.01000000
  1 50 103       1.00000000       0.01000000
  1 50 104       0.50000000       0.01000000
  1 50 107       0.00000000       0.01000000
  1 50 108       0.00000000       0.01000000
  1 50 129       0.00000000       0.01000000
  1 50 130       0.00000000       0.01000000
  1 51 86      64.50000000       0.01000000
  1 51 87      61.00000000       0.01000000
  1 51 91      41.50000000       0.01000000
  1 51 92      32.00000000       0.01000000
  1 51 93      26.50000000       0.01000000
  1 51 94      20.50000000       0.01000000
  1 51 95      15.00000000       0.01000000
  1 51 96       9.50000000       0.01000000
  1 51 97       6.50000000       0.01000000
  1 51 98       2.50000000       0.01000000
  1 51 99       2.50000000       0.01000000
  1 51 100       2.00000000       0.01000000
  1 51 101       2.00000000       0.01000000
  1 51 102       1.00000000       0.01000000
  1 51 103       1.00000000       0.01000000
  1 51 104       0.00000000       0.01000000
  1 51 105       0.00000000       0.01000000
  1 51 106       0.00000000       0.01000000
  1 51 107       0.00000000       0.01000000
  1 51 108       0.00000000       0.01000000
  1 51 123       0.00000000       0.01000000
  1 51 128       0.00000000       0.01000000
  1 51 129       0.00000000       0.01000000
  1 51 130       0.00000000       0.01000000
  1 52 86      53.00000000       0.01000000
  1 52 87      55.00000000       0.01000000
  1 52 88      48.50000000       0.01000000
  1 52 90      39.00000000       0.01000000
  1 52 91      34.50000000       0.01000000
  1 52 92      29.50000000       0.01000000
  1 52 93      25.50000000       0.01000000
  1 52 94      20.50000000       0.01000000
  1 52 95      14.50000000       0.01000000
  1 52 96       9.50000000       0.01000000
  1 52 97      12.00000000       0.01000000
  1 52 98       5.00000000       0.01000000
  1 52 99       5.00000000       0.01000000
  1 52 100       3.00000000       0.01000000
  1 52 101       1.00000000       0.01000000
  1 52 102       1.00000000       0.01000000
  1 52 103       1.00000000       0.01000000
  1 52 104       1.00000000       0.01000000
  1 52 105       1.00000000       0.01000000
  1 52 106       1.00000000       0.01000000
  1 52 107       0.00000000       0.01000000
  1 52 108       0.00000000       0.01000000
  1 52 109       0.00000000       0.01000000
  1 52 123       0.00000000       0.01000000
  1 52 127       0.00000000       0.01000000
  1 52 128       0.00000000       0.01000000
  1 52 129       0.00000000       0.01000000
  1 53 87      44.50000000       0.01000000
  1 53 88      41.00000000       0.01000000
  1 53 89      40.00000000       0.01000000
  1 53 90      34.00000000       0.01000000
  1 53 91      28.00000000       0.01000000
  1 53 92      24.00000000       0.01000000
  1 53 93      22.50000000       0.01000000
  1 53 94      18.00000000       0.01000000
  1 53 95      14.50000000       0.01000000
  1 53 96      11.00000000       0.01000000
  1 53 97       9.00000000       0.01000000
  1 53 98       7.00000000       0.01000000
  1 53 99       6.00000000       0.01000000
  1 53 100       4.00000000       0.01000000
  1 53 101       2.00000000       0.01000000
  1 53 102       1.00000000       0.01000000
  1 53 103       1.00000000       0.01000000
  1 53 104       1.00000000       0.01000000
  1 53 105       1.50000000       0.01000000
  1 53 106       1.00000000       0.01000000
  1 53 107       0.50000000       0.01000000
  1 53 108       0.00000000       0.01000000
  1 53 109       0.00000000       0.01000000
  1 53 127       0.00000000       0.01000000
  1 53 128       0.00000000       0.01000000
  1 53 129       0.00000000       0.01000000
  1 54 84      62.00000000       0.01000000
  1 54 87      44.50000000       0.01000000
  1 54 88      41.50000000       0.01000000
  1 54 89      37.00000000       0.01000000
  1 54 90      32.50000000       0.01000000
  1 54 91      29.00000000       0.01000000
  1 54 92      25.50000000       0.01000000
  1 54 93      21.50000000       0.01000000
  1 54 94      18.50000000       0.01000000
  1 54 95      16.00000000       0.01000000
  1 54 96      11.00000000       0.01000000
  1 54 97       8.00000000       0.01000000
  1 54 98       6.50000000       0.01000000
  1 54 99       5.00000000       0.01000000
  1 54 100       4.00000000       0.01000000
  1 54 101       3.00000000       0.01000000
  1 54 102       2.00000000       0.01000000
  1 54 103       2.00000000       0.01000000
  1 54 104       1.00000000       0.01000000
  1 54 105       1.50000000       0.01000000
  1 54 106       2.00000000       0.01000000
  1 54 107       1.00000000       0.01000000
  1 54 108       0.00000000       0.01000000
  1 54 109       0.00000000       0.01000000
  1 54 126       0.00000000       0.01000000
  1 54 127       0.00000000       0.01000000
  1 54 128       0.00000000       0.01000000
  1 54 129       0.00000000       0.01000000
  1 55 79      69.00000000       0.01000000
  1 55 80      74.50000000       0.01000000
  1 55 81      75.50000000       0.01000000
  1 55 82      66.50000000       0.01000000
  1 55 83      58.00000000       0.01000000
  1 55 84      57.00000000       0.01000000
  1 55 85      48.50000000       0.01000000
  1 55 86      42.50000000       0.01000000
  1 55 88      38.50000000       0.01000000
  1 55 89      34.50000000       0.01000000
  1 55 90      30.50000000       0.01000000
  1 55 91      26.50000000       0.01000000
  1 55 92      23.50000000       0.01000000
  1 55 93      21.00000000       0.01000000
  1 55 94      18.00000000       0.01000000
  1 55 95      14.50000000       0.01000000
  1 55 96      11.50000000       0.01000000
  1 55 97       9.00000000       0.01000000
  1 55 98       7.00000000       0.01000000
  1 55 99       6.50000000       0.01000000
  1 55 100       5.50000000       0.01000000
  1 55 101       5.00000000       0.01000000
  1 55 102       2.50000000       0.01000000
  1 55 103       2.50000000       0.01000000
  1 55 104       2.00000000       0.01000000
  1 55 105       2.00000000       0.01000000
  1 55 106       1.00000000       0.01000000
  1 55 107       1.00000000       0.01000000
  1 55 108       0.00000000       0.01000000
  1 55 109       0.00000000       0.01000000
  1 55 125       0.00000000       0.01000000
  1 55 126       0.00000000       0.01000000
  1 55 127       0.00000000       0.01000000
  1 55 128       0.00000000       0.01000000
  1 55 129       0.00000000       0.01000000
  1 56 77      73.00000000       0.01000000
  1 56 78      68.50000000       0.01000000
  1 56 79      62.50000000       0.01000000
  1 56 80      67.50000000       0.01000000
  1 56 81      66.50000000       0.01000000
  1 56 82      62.50000000       0.01000000
  1 56 83      56.50000000       0.01000000
  1 56 84      53.50000000       0.01000000
  1 56 85      49.00000000       0.01000000
  1 56 86      40.50000000       0.01000000
  1 56 87      36.50000000       0.01000000
  1 56 88      34.50000000       0.01000000
  1 56 89      32.00000000       0.01000000
  1 56 90      28.50000000       0.01000000
  1 56 91      25.50000000       0.01000000
  1 56 92      22.50000000       0.01000000
  1 56 93      20.00000000       0.01000000
  1 56 94      17.00000000       0.01000000
  1 56 95      14.00000000       0.01000000
  1 56 96      11.50000000       0.01000000
  1 56 97       9.00000000       0.01000000
  1 56 98       8.00000000       0.01000000
  1 56 99       8.00000000       0.01000000
  1 56 100       6.50000000       0.01000000
  1 56 101       5.00000000       0.01000000
  1 56 102       2.50000000       0.01000000
  1 56 103       3.00000000       0.01000000
  1 56 104       3.00000000       0.01000000
  1 56 105       3.50000000       0.01000000
  1 56 106       1.00000000       0.01000000
  1 56 107       1.00000000       0.01000000
  1 56 108       0.50000000       0.01000000
  1 56 109       0.00000000       0.01000000
  1 56 124       0.00000000       0.01000000
  1 56 126       0.00000000       0.01000000
  1 56 127       0.00000000       0.01000000
  1 56 128       0.00000000       0.01000000
  1 56 129       0.00000000       0.01000000
  1 57 76      71.00000000       0.01000000
  1 57 77      65.50000000       0.01000000
  1 57 78      62.00000000       0.01000000
  1 57 79      61.50000000       0.01000000
  1 57 80      64.50000000       0.01000000
  1 57 81      62.50000000       0.01000000
  1 57 82      61.50000000       0.01000000
  1 57 83      57.00000000       0.01000000
  1 57 84      52.50000000       0.01000000
  1 57 85      49.00000000       0.01000000
  1 57 86      42.50000000       0.01000000
  1 57 87      37.50000000       0.01000000
  1 57 88      33.50000000       0.01000000
  1 57 89      31.00000000       0.01000000
  1 57 90      29.00000000       0.01000000
  1 57 91      24.50000000       0.01000000
  1 57 92      22.00000000       0.01000000
  1 57 93      20.00000000       0.01000000
  1 57 94      17.00000000       0.01000000
  1 57 95      14.00000000       0.01000000
  1 57 96      11.50000000       0.01000000
  1 57 97       9.00000000       0.01000000
  1 57 98       8.00000000       0.01000000
  1 57 99       9.00000000       0.01000000
  1 57 100       7.50000000       0.01000000
  1 57 101       5.00000000       0.01000000
  1 57 102       4.00000000       0.01000000
  1 57 103       4.50000000       0.01000000
  1 57 104       4.00000000       0.01000000
  1 57 105       3.00000000       0.01000000
  1 57 106       1.50000000       0.01000000
  1 57 107       1.00000000       0.01000000
  1 57 108       1.00000000       0.01000000
  1 57 109       0.00000000       0.01000000
  1 57 110       0.00000000       0.01000000
  1 57 124       0.00000000       0.01000000
  1 57 125       0.00000000       0.01000000
  1 57 126       0.00000000       0.01000000
  1 57 127       0.00000000       0.01000000
  1 57 128       0.00000000       0.01000000
  1 57 129       0.00000000       0.01000000
  1 58 73      88.50000000       0.01000000
  1 58 74      82.00000000       0.01000000
  1 58 75      73.50000000       0.01000000
  1 58 76      65.50000000       0.01000000
  1 58 77      59.50000000       0.01000000
  1 58 78      61.50000000       0.01000000
  1 58 79      60.00000000       0.01000000
  1 58 80      60.50000000       0.01000000
  1 58 81      59.50000000       0.01000000
  1 58 82      58.00000000       0.01000000
  1 58 83      55.50000000       0.01000000
  1 58 84      52.00000000       0.01000000
  1 58 85      48.50000000       0.01000000
  1 58 86      40.50000000       0.01000000
  1 58 87      36.50000000       0.01000000
  1 58 88      33.00000000       0.01000000
  1 58 89      29.00000000       0.01000000
  1 58 90      27.50000000       0.01000000
  1 58 91      24.50000000       0.01000000
  1 58 92      21.50000000       0.01000000
  1 58 93      19.00000000       0.01000000
  1 58 94      17.00000000       0.01000000
  1 58 95      14.00000000       0.01000000
  1 58 96      12.00000000       0.01000000
  1 58 97      10.00000000       0.01000000
  1 58 98       9.00000000       0.01000000
  1 58 99       8.00000000       0.01000000
  1 58 100       6.50000000       0.01000000
  1 58 101       7.00000000       0.01000000
  1 58 102       5.50000000       0.01000000
  1 58 103       5.50000000       0.01000000
  1 58 104       4.50000000       0.01000000
  1 58 105       2.50000000       0.01000000
  1 58 106       2.00000000       0.01000000
  1 58 107       1.00000000       0.01000000
  1 58 108       1.00000000       0.01000000
  1 58 109       0.00000000       0.01000000
  1 58 110       0.00000000       0.01000000
  1 58 127       0.00000000       0.01000000
  1 58 128       0.00000000       0.01000000
  1 58 129       0.00000000       0.01000000
  1 59 74      79.00000000       0.01000000
  1 59 75      69.00000000       0.01000000
  1 59 76      63.00000000       0.01000000
  1 59 77      57.00000000       0.01000000
  1 59 78      56.00000000       0.01000000
  1 59 79      59.50000000       0.01000000
  1 59 80      57.00000000       0.01000000
  1 59 81      56.00000000       0.01000000
  1 59 82      55.00000000       0.01000000
  1 59 83      52.50000000       0.01000000
  1 59 84      50.00000000       0.01000000
  1 59 85      46.00000000       0.01000000
  1 59 86      39.00000000       0.01000000
  1 59 87      35.50000000       0.01000000
  1 59 88      32.00000000       0.01000000
  1 59 89      29.00000000       0.01000000