BEGIN options
  BOUNDNAMES
  PRINT_INPUT
  PRINT_FLOWS
  SAVE_FLOWS
  TS6  FILEIN  test_3D.ghb.ts
END options

BEGIN dimensions
  MAXBOUND  10
END dimensions

BEGIN period  1
  2 111 101  tides       0.01000000  Estuary-L2
  2 112 101  tides       0.01000000  Estuary-L2
  2 113 101  tides       0.01000000  Estuary-L2
  2 114 101  tides       0.01000000  Estuary-L2
  2 115 101  tides       0.01000000  Estuary-L2
  2 116 101  tides       0.01000000  Estuary-L2
  2 117 101  tides       0.01000000  Estuary-L2
  2 118 101  tides       0.01000000  Estuary-L2
  2 119 101  tides       0.01000000  Estuary-L2
  2 120 101  tides       0.01000000  Estuary-L2
END period  1

