BEGIN options
  SAVE_FLOWS
END options

BEGIN dimensions
  MAXBOUND  291
END dimensions

BEGIN period  1
  4 103 43      -0.02148969
  5 103 43      -0.02148969
  4 103 41      -0.01365327
  5 103 41      -0.01365327
  4 113 74      -0.01184430
  5 113 74      -0.01184430
  4 98 82      -0.01169129
  5 98 82      -0.01169129
  4 105 40      -0.01128469
  5 105 40      -0.01128469
  4 103 30      -0.01080787
  5 103 30      -0.01080787
  4 124 51      -0.00986354
  5 124 51      -0.00986354
  4 88 124      -0.00913057
  5 88 124      -0.00913057
  4 120 49      -0.00507116
  5 120 49      -0.00507116
  4 106 103      -0.00901452
  5 106 103      -0.00901452
  4 140 107      -0.00854111
  5 140 107      -0.00854111
  4 80 92      -0.00844280
  5 80 92      -0.00844280
  4 77 86      -0.00839196
  5 77 86      -0.00839196
  4 73 114      -0.00804910
  5 73 114      -0.00804910
  4 64 116      -0.00735303
  5 64 116      -0.00735303
  4 105 66      -0.00731214
  5 105 66      -0.00731214
  4 101 35      -0.00694687
  5 101 35      -0.00694687
  4 103 101      -0.00676004
  5 103 101      -0.00676004
  4 137 121      -0.00617296
  5 137 121      -0.00617296
  4 107 92      -0.00609123
  5 107 92      -0.00609123
  4 133 102      -0.00606064
  5 133 102      -0.00606064
  4 104 118      -0.00584516
  5 104 118      -0.00584516
  4 135 53      -0.00583528
  5 135 53      -0.00583528
  4 127 69      -0.00568385
  5 127 69      -0.00568385
  4 143 57      -0.00559741
  5 143 57      -0.00559741
  4 114 73      -0.00558798
  5 114 73      -0.00558798
  4 67 111      -0.00556416
  5 67 111      -0.00556416
  4 96 63      -0.00550688
  5 96 63      -0.00550688
  4 95 73      -0.00544200
  5 95 73      -0.00544200
  4 123 95      -0.00542464
  5 123 95      -0.00542464
  4 138 118      -0.00539677
  5 138 118      -0.00539677
  4 87 99      -0.00531960
  5 87 99      -0.00531960
  4 98 125      -0.00523987
  5 98 125      -0.00523987
  4 46 129      -0.00509990
  5 46 129      -0.00509990
  4 95 76      -0.00504167
  5 95 76      -0.00504167
  4 46 129      -0.00486251
  5 46 129      -0.00486251
  4 122 113      -0.00474177
  5 122 113      -0.00474177
  4 67 117      -0.00468644
  5 67 117      -0.00468644
  4 109 115      -0.00456879
  5 109 115      -0.00456879
  4 135 98      -0.00454679
  5 135 98      -0.00454679
  4 93 72      -0.00452705
  5 93 72      -0.00452705
  4 101 81      -0.00450582
  5 101 81      -0.00450582
  4 78 83      -0.00447441
  5 78 83      -0.00447441
  4 101 55      -0.00446845
  5 101 55      -0.00446845
  4 72 73      -0.00443687
  5 72 73      -0.00443687
  4 85 127      -0.00440918
  5 85 127      -0.00440918
  4 70 83      -0.00435344
  5 70 83      -0.00435344
  4 66 121      -0.00426622
  5 66 121      -0.00426622
  4 97 120      -0.00419682
  5 97 120      -0.00419682
  4 134 97      -0.00414247
  5 134 97      -0.00414247
  4 96 119      -0.00414028
  5 96 119      -0.00414028
  4 134 88      -0.00411045
  5 134 88      -0.00411045
  4 114 102      -0.00395294
  5 114 102      -0.00395294
  4 136 100      -0.00394673
  5 136 100      -0.00394673
  4 110 116      -0.00389672
  5 110 116      -0.00389672
  4 100 70      -0.00380097
  5 100 70      -0.00380097
  4 64 116      -0.00375761
  5 64 116      -0.00375761
  4 105 127      -0.00373560
  5 105 127      -0.00373560
  4 132 95      -0.00366603
  5 132 95      -0.00366603
  4 129 95      -0.00364577
  5 129 95      -0.00364577
  4 50 97      -0.00344059
  5 50 97      -0.00344059
  4 132 63      -0.00338505
  5 132 63      -0.00338505
  4 114 103      -0.00332845
  5 114 103      -0.00332845
  4 70 109      -0.00320760
  5 70 109      -0.00320760
  4 123 82      -0.00310158
  5 123 82      -0.00310158
  4 70 119      -0.00299753
  5 70 119      -0.00299753
  4 91 88      -0.00282544
  5 91 88      -0.00282544
  4 68 110      -0.00264548
  5 68 110      -0.00264548
  4 78 118      -0.00247706
  5 78 118      -0.00247706
  4 78 118      -0.00247647
  5 78 118      -0.00247647
  4 78 121      -0.00238779
  5 78 121      -0.00238779
  4 71 109      -0.00226176
  5 71 109      -0.00226176
  4 130 117      -0.00225144
  5 130 117      -0.00225144
  4 68 118      -0.00221805
  5 68 118      -0.00221805
  4 127 105      -0.00219490
  5 127 105      -0.00219490
  4 90 122      -0.00216614
  5 90 122      -0.00216614
  4 67 111      -0.00216572
  5 67 111      -0.00216572
  4 73 115      -0.00211065
  5 73 115      -0.00211065
  4 96 121      -0.00203894
  5 96 121      -0.00203894
  4 99 44      -0.00203650
  5 99 44      -0.00203650
  4 121 86      -0.00203566
  5 121 86      -0.00203566
  4 82 120      -0.00192907
  5 82 120      -0.00192907
  4 103 65      -0.00191727
  5 103 65      -0.00191727
  4 108 47      -0.00181325
  5 108 47      -0.00181325
  4 94 89      -0.00179344
  5 94 89      -0.00179344
  4 103 27      -0.00176839
  5 103 27      -0.00176839
  4 80 78      -0.00160165
  5 80 78      -0.00160165
  4 89 116      -0.00147401
  5 89 116      -0.00147401
  4 122 106      -0.00144711
  5 122 106      -0.00144711
  4 139 112      -0.00141792
  5 139 112      -0.00141792
  4 134 86      -0.00139704
  5 134 86      -0.00139704
  4 87 94      -0.00135550
  5 87 94      -0.00135550
  4 72 93      -0.00128177
  5 72 93      -0.00128177
  4 89 115      -0.00122899
  5 89 115      -0.00122899
  4 103 41      -0.00102435
  5 103 41      -0.00102435
  4 70 84  -7.52600203E-04
  5 70 84  -7.52600203E-04
  4 135 112  -6.72168316E-04
  5 135 112  -6.72168316E-04
  4 106 102  -6.01201801E-04
  5 106 102  -6.01201801E-04
  4 111 72  -5.84601725E-04
  5 111 72  -5.84601725E-04
  4 123 52  -5.31075596E-04
  5 123 52  -5.31075596E-04
  4 136 55  -5.01426941E-04
  5 136 55  -5.01426941E-04
  4 132 86  -4.65182648E-04
  5 132 86  -4.65182648E-04
  4 65 93  -3.79534500E-04
  5 65 93  -3.79534500E-04
  4 88 94  -3.68340944E-04
  5 88 94  -3.68340944E-04
  4 102 60  -2.53329528E-04
  5 102 60  -2.53329528E-04
  4 59 100  -2.40994419E-04
  5 59 100  -2.40994419E-04
  4 99 82  -2.13708143E-04
  5 99 82  -2.13708143E-04
  5 152 93  -3.54832572E-04
  4 59 94  -1.08098681E-04
  5 59 94  -1.08098681E-04
  4 105 82  -8.72653475E-05
  5 105 82  -8.72653475E-05
  4 51 97  -7.71340690E-05
  5 51 97  -7.71340690E-05
  4 118 74  -1.08923135E-05
  5 118 74  -1.08923135E-05
  4 99 92  -1.83916794E-06
  5 99 92  -1.83916794E-06
  2 109 42      -0.11600828
  2 103 30      -0.06838499
  2 137 121      -0.05300685
  2 138 110      -0.02072073
  2 166 69      -0.02064181
  2 87 99      -0.01852448
  2 142 114      -0.01716086
  2 105 40      -0.01522726
  2 152 92      -0.01485769
  2 149 99      -0.01106298
  2 129 117      -0.01003656
  2 129 117      -0.00945152
  2 116 7      -0.00924978
  2 129 117      -0.00911726
  2 152 91      -0.00879287
  2 171 62      -0.00790512
  2 129 117      -0.00625856
  2 152 91      -0.00560458
  2 104 43      -0.00406028
  2 155 85      -0.00379665
  2 140 107      -0.00368760
  2 150 92      -0.00367526
  2 129 117      -0.00235661
  2 95 127  -2.45846017E-04
  2 95 127  -2.05701421E-04
  2 104 26  -7.87037037E-05
  2 120 49      -0.00789342
  2 161 85      -0.00175598
  5 161 85      -0.00175598
  2 94 105  -3.54388635E-04
  4 94 105  -3.54388635E-04
  5 94 105  -3.54388635E-04
  2 116 7  -3.42148656E-04
  4 116 7  -3.42148656E-04
  5 116 7  -3.42148656E-04
  4 134 113  -3.24835109E-04
  5 134 113  -3.24835109E-04
  2 160 75  -1.95871385E-04
  5 160 75  -1.95871385E-04
  2 90 122  -1.28340098E-04
  4 90 122  -1.28340098E-04
  5 90 122  -1.28340098E-04
  2 145 122  -1.18383223E-04
  4 145 122  -1.18383223E-04
  5 145 122  -1.18383223E-04
  2 155 122  -9.81523761E-05
  4 155 122  -9.81523761E-05
  5 155 122  -9.81523761E-05
  2 92 100  -5.26593946E-05
  4 92 100  -5.26593946E-05
  5 92 100  -5.26593946E-05
  2 87 93  -4.93298664E-05
  4 87 93  -4.93298664E-05
  5 87 93  -4.93298664E-05
  2 100 25  -4.65605446E-05
  4 100 25  -4.65605446E-05
  5 100 25  -4.65605446E-05
  2 141 123  -2.32538475E-05
  4 141 123  -2.32538475E-05
  5 141 123  -2.32538475E-05
  2 105 82  -2.01251480E-05
  4 105 82  -2.01251480E-05
  5 105 82  -2.01251480E-05
  2 69 81  -1.85713682E-05
  4 69 81  -1.85713682E-05
  5 69 81  -1.85713682E-05
END period  1

