BEGIN options
  SAVE_FLOWS
END options

BEGIN dimensions
  MAXBOUND  10488
END dimensions

BEGIN period  1
  2 6 144  3.66738412E-09
  2 6 145  3.66738412E-09
  1 7 143  3.66738412E-09
  2 7 144  3.66738412E-09
  2 7 145  3.66738412E-09
  2 7 146  3.66738412E-09
  2 7 147  3.66738412E-09
  2 7 148  3.66738412E-09
  1 8 141  3.66738412E-09
  2 8 142  3.66738412E-09
  2 8 143  3.66738412E-09
  1 8 144  3.66738412E-09
  2 8 145  3.66738412E-09
  2 8 146  3.66738412E-09
  2 8 147  3.66738412E-09
  2 8 148  3.66738412E-09
  2 8 150  3.66738412E-09
  2 9 140  3.66738412E-09
  2 9 141  3.66738412E-09
  2 9 142  3.66738412E-09
  2 9 143  3.66738412E-09
  2 9 144  3.66738412E-09
  1 9 145  3.66738412E-09
  2 9 146  3.66738412E-09
  2 9 147  3.66738412E-09
  2 9 148  3.66738412E-09
  2 9 149  3.66738412E-09
  2 9 150  3.66738412E-09
  2 10 140  3.66738412E-09
  2 10 141  3.66738412E-09
  2 10 142  3.66738412E-09
  2 10 143  3.66738412E-09
  2 10 144  3.66738412E-09
  2 10 145  3.66738412E-09
  2 10 146  3.66738412E-09
  2 10 147  3.66738412E-09
  2 10 148  3.66738412E-09
  2 10 149  3.66738412E-09
  2 10 150  3.66738412E-09
  2 11 140  3.66738412E-09
  2 11 141  3.66738412E-09
  2 11 142  3.66738412E-09
  2 11 143  3.66738412E-09
  1 11 144  3.66738412E-09
  2 11 145  3.66738412E-09
  2 11 146  3.66738412E-09
  2 11 147  3.66738412E-09
  2 11 148  3.66738412E-09
  2 11 149  3.66738412E-09
  2 11 150  3.66738412E-09
  2 12 141  3.66738412E-09
  2 12 142  3.66738412E-09
  2 12 143  3.66738412E-09
  2 12 144  3.66738412E-09
  2 12 145  3.66738412E-09
  2 12 146  3.66738412E-09
  2 12 147  3.66738412E-09
  2 12 148  3.66738412E-09
  2 12 149  3.66738412E-09
  1 12 150  3.66738412E-09
  2 13 143  3.66738412E-09
  2 13 144  3.66738412E-09
  2 13 145  3.66738412E-09
  2 13 146  3.66738412E-09
  2 13 147  3.66738412E-09
  2 13 148  3.66738412E-09
  1 13 149  3.66738412E-09
  1 13 150  3.66738412E-09
  2 14 142  3.66738412E-09
  2 14 143  3.66738412E-09
  2 14 144  3.66738412E-09
  2 14 145  3.66738412E-09
  2 14 146  3.66738412E-09
  1 14 147  3.66738412E-09
  1 14 148  3.66738412E-09
  1 14 149  3.66738412E-09
  1 14 150  3.66738412E-09
  2 15 143  3.66738412E-09
  2 15 145  3.66738412E-09
  1 15 146  3.66738412E-09
  1 15 147  3.66738412E-09
  1 15 148  3.66738412E-09
  1 15 149  3.66738412E-09
  1 15 150  3.66738412E-09
  1 16 146  3.66738412E-09
  1 16 147  3.66738412E-09
  1 16 148  3.66738412E-09
  1 16 149  3.66738412E-09
  1 16 150  3.66738412E-09
  1 17 145  3.66738412E-09
  1 17 146  3.66738412E-09
  1 17 147  3.66738412E-09
  1 17 148  3.66738412E-09
  1 17 149  3.66738412E-09
  1 17 150  3.66738412E-09
  1 18 144  3.66738412E-09
  1 18 145  3.66738412E-09
  1 18 146  3.66738412E-09
  1 18 147  3.66738412E-09
  1 18 148  3.66738412E-09
  1 18 149  3.66738412E-09
  1 18 150  3.66738412E-09
  2 19 136  3.66738412E-09
  2 19 137  3.66738412E-09
  2 19 138  3.66738412E-09
  2 19 139  3.66738412E-09
  2 19 140  3.66738412E-09
  2 19 141  3.66738412E-09
  2 19 142  3.66738412E-09
  1 19 143  3.66738412E-09
  1 19 144  3.66738412E-09
  1 19 145  3.66738412E-09
  1 19 146  3.66738412E-09
  1 19 147  3.66738412E-09
  1 19 148  3.66738412E-09
  1 19 149  3.66738412E-09
  1 19 150  3.66738412E-09
  2 20 135  3.66738412E-09
  2 20 136  3.66738412E-09
  2 20 137  3.66738412E-09
  2 20 138  3.66738412E-09
  2 20 139  3.66738412E-09
  2 20 140  3.66738412E-09
  2 20 141  3.66738412E-09
  1 20 142  3.66738412E-09
  1 20 143  3.66738412E-09
  1 20 144  3.66738412E-09
  1 20 145  3.66738412E-09
  1 20 146  3.66738412E-09
  1 20 147  3.66738412E-09
  1 20 148  3.66738412E-09
  1 20 149  3.66738412E-09
  1 20 150  3.66738412E-09
  2 21 135  3.66738412E-09
  2 21 136  3.66738412E-09
  2 21 137  3.66738412E-09
  2 21 138  3.66738412E-09
  2 21 139  3.66738412E-09
  2 21 140  3.66738412E-09
  2 21 141  3.66738412E-09
  1 21 142  3.66738412E-09
  1 21 143  3.66738412E-09
  1 21 144  3.66738412E-09
  1 21 145  3.66738412E-09
  1 21 146  3.66738412E-09
  1 21 147  3.66738412E-09
  1 21 148  3.66738412E-09
  1 21 149  3.66738412E-09
  1 21 150  3.66738412E-09
  2 22 135  3.66738412E-09
  2 22 136  3.66738412E-09
  2 22 137  3.66738412E-09
  2 22 138  3.66738412E-09
  2 22 139  3.66738412E-09
  1 22 140  3.66738412E-09
  1 22 141  3.66738412E-09
  1 22 142  3.66738412E-09
  1 22 143  3.66738412E-09
  1 22 144  3.66738412E-09
  1 22 145  3.66738412E-09
  1 22 146  3.66738412E-09
  1 22 147  3.66738412E-09
  1 22 148  3.66738412E-09
  1 22 149  3.66738412E-09
  1 22 150  3.66738412E-09
  2 23 135  3.66738412E-09
  2 23 136  3.66738412E-09
  2 23 137  3.66738412E-09
  2 23 138  3.66738412E-09
  1 23 139  3.66738412E-09
  1 23 140  3.66738412E-09
  1 23 141  3.66738412E-09
  1 23 142  3.66738412E-09
  1 23 143  3.66738412E-09
  1 23 144  3.66738412E-09
  1 23 145  3.66738412E-09
  1 23 146  3.66738412E-09
  1 23 147  3.66738412E-09
  1 23 148  3.66738412E-09
  1 23 149  3.66738412E-09
  1 23 150  3.66738412E-09
  2 24 135  3.66738412E-09
  2 24 136  3.66738412E-09
  1 24 137  3.66738412E-09
  1 24 138  3.66738412E-09
  1 24 139  3.66738412E-09
  1 24 140  3.66738412E-09
  1 24 141  3.66738412E-09
  1 24 142  3.66738412E-09
  1 24 143  3.66738412E-09
  1 24 144  3.66738412E-09
  1 24 145  3.66738412E-09
  1 24 146  3.66738412E-09
  1 24 147  3.66738412E-09
  1 24 148  3.66738412E-09
  1 24 149  3.66738412E-09
  1 24 150  3.66738412E-09
  2 25 135  3.66738412E-09
  1 25 136  3.66738412E-09
  1 25 137  3.66738412E-09
  1 25 138  3.66738412E-09
  1 25 139  3.66738412E-09
  1 25 140  3.66738412E-09
  1 25 141  3.66738412E-09
  1 25 142  3.66738412E-09
  1 25 143  3.66738412E-09
  1 25 144  3.66738412E-09
  1 25 145  3.66738412E-09
  1 25 146  3.66738412E-09
  1 25 147  3.66738412E-09
  1 25 148  3.66738412E-09
  1 25 149  3.66738412E-09
  1 25 150  3.66738412E-09
  1 26 135  3.66738412E-09
  1 26 136  3.66738412E-09
  1 26 137  3.66738412E-09
  1 26 138  3.66738412E-09
  1 26 139  3.66738412E-09
  1 26 140  3.66738412E-09
  1 26 141  3.66738412E-09
  1 26 142  3.66738412E-09
  1 26 143  3.66738412E-09
  1 26 144  3.66738412E-09
  1 26 145  3.66738412E-09
  1 26 146  3.66738412E-09
  1 26 147  3.66738412E-09
  1 26 148  3.66738412E-09
  1 26 149  3.66738412E-09
  1 26 150  3.66738412E-09
  1 27 134  3.66738412E-09
  1 27 135  3.66738412E-09
  1 27 136  3.66738412E-09
  1 27 137  3.66738412E-09
  1 27 138  3.66738412E-09
  1 27 139  3.66738412E-09
  1 27 140  3.66738412E-09
  1 27 141  3.66738412E-09
  1 27 142  3.66738412E-09
  1 27 143  3.66738412E-09
  1 27 144  3.66738412E-09
  1 27 145  3.66738412E-09
  1 27 146  3.66738412E-09
  1 27 147  3.66738412E-09
  1 27 148  3.66738412E-09
  1 27 149  3.66738412E-09
  1 27 150  3.66738412E-09
  1 28 132  3.66738412E-09
  1 28 133  3.66738412E-09
  1 28 134  3.66738412E-09
  1 28 135  3.66738412E-09
  1 28 136  3.66738412E-09
  1 28 137  3.66738412E-09
  1 28 138  3.66738412E-09
  1 28 139  3.66738412E-09
  1 28 140  3.66738412E-09
  1 28 141  3.66738412E-09
  1 28 142  3.66738412E-09
  1 28 143  3.66738412E-09
  1 28 144  3.66738412E-09
  1 28 145  3.66738412E-09
  1 28 146  3.66738412E-09
  1 28 147  3.66738412E-09
  1 28 148  3.66738412E-09
  1 28 149  3.66738412E-09
  1 28 150  3.66738412E-09
  1 29 131  3.66738412E-09
  1 29 132  3.66738412E-09
  1 29 133  3.66738412E-09
  1 29 134  3.66738412E-09
  1 29 135  3.66738412E-09
  1 29 136  3.66738412E-09
  1 29 137  3.66738412E-09
  1 29 138  3.66738412E-09
  1 29 139  3.66738412E-09
  1 29 140  3.66738412E-09
  1 29 141  3.66738412E-09
  1 29 142  3.66738412E-09
  1 29 143  3.66738412E-09
  1 29 144  3.66738412E-09
  1 29 145  3.66738412E-09
  1 29 146  3.66738412E-09
  1 29 147  3.66738412E-09
  1 29 148  3.66738412E-09
  1 29 149  3.66738412E-09
  1 29 150  3.66738412E-09
  1 30 129  4.42351598E-09
  1 30 130  4.42351598E-09
  1 30 131  4.42351598E-09
  1 30 132  3.66738412E-09
  1 30 133  3.66738412E-09
  1 30 134  3.66738412E-09
  1 30 135  3.66738412E-09
  1 30 136  3.66738412E-09
  1 30 137  3.66738412E-09
  1 30 138  3.66738412E-09
  1 30 139  3.66738412E-09
  1 30 140  3.66738412E-09
  1 30 141  3.66738412E-09
  1 30 142  3.66738412E-09
  1 30 143  3.66738412E-09
  1 30 144  3.66738412E-09
  1 30 145  3.66738412E-09
  1 30 146  3.66738412E-09
  1 30 147  3.66738412E-09
  1 30 148  3.66738412E-09
  1 30 149  3.66738412E-09
  1 30 150  3.66738412E-09
  1 31 127  4.42351598E-09
  1 31 128  4.42351598E-09
  1 31 129  4.42351598E-09
  1 31 130  4.42351598E-09
  1 31 131  4.42351598E-09
  1 31 132  4.42351598E-09
  1 31 133  4.42351598E-09
  1 31 134  3.66738412E-09
  1 31 135  3.66738412E-09
  1 31 136  3.66738412E-09
  1 31 137  3.66738412E-09
  1 31 138  3.66738412E-09
  1 31 139  3.66738412E-09
  1 31 140  3.66738412E-09
  1 31 141  3.66738412E-09
  1 31 142  3.66738412E-09
  1 31 143  3.66738412E-09
  1 31 144  3.66738412E-09
  1 31 145  3.66738412E-09
  1 31 146  3.66738412E-09
  1 31 147  3.66738412E-09
  1 31 148  3.66738412E-09
  1 31 149  3.66738412E-09
  1 31 150  3.66738412E-09
  1 32 125  4.42351598E-09
  1 32 126  4.42351598E-09
  1 32 127  4.42351598E-09
  1 32 128  4.42351598E-09
  1 32 129  4.42351598E-09
  1 32 130  4.42351598E-09
  1 32 131  4.42351598E-09
  1 32 132  4.42351598E-09
  1 32 133  4.42351598E-09
  1 32 134  4.42351598E-09
  1 32 135  3.66738412E-09
  1 32 136  3.66738412E-09
  1 32 137  3.66738412E-09
  1 32 138  3.66738412E-09
  1 32 139  3.66738412E-09
  1 32 140  3.66738412E-09
  1 32 141  3.66738412E-09
  1 32 142  3.66738412E-09
  1 32 143  3.66738412E-09
  1 32 144  3.66738412E-09
  1 32 145  3.66738412E-09
  1 32 146  3.66738412E-09
  1 32 147  3.66738412E-09
  1 32 148  3.66738412E-09
  1 32 149  3.66738412E-09
  1 32 150  3.66738412E-09
  1 33 122  3.66738412E-09
  1 33 123  4.42351598E-09
  1 33 124  4.42351598E-09
  1 33 125  4.42351598E-09
  1 33 126  4.42351598E-09
  1 33 127  4.42351598E-09
  1 33 128  4.42351598E-09
  1 33 129  4.42351598E-09
  1 33 130  4.42351598E-09
  1 33 131  4.42351598E-09
  1 33 132  4.42351598E-09
  1 33 133  4.42351598E-09
  1 33 134  4.42351598E-09
  1 33 135  4.42351598E-09
  1 33 136  4.42351598E-09
  1 33 137  3.66738412E-09
  1 33 138  3.66738412E-09
  1 33 139  3.66738412E-09
  1 33 140  3.66738412E-09
  1 33 141  3.66738412E-09
  1 33 142  3.66738412E-09
  1 33 143  3.66738412E-09
  1 33 144  3.66738412E-09
  1 33 145  3.66738412E-09
  1 33 146  3.66738412E-09
  1 33 147  3.66738412E-09
  1 33 148  3.66738412E-09
  1 33 149  3.66738412E-09
  1 33 150  3.66738412E-09
  1 34 120  3.66738412E-09
  1 34 121  3.66738412E-09
  1 34 122  4.42351598E-09
  1 34 123  4.42351598E-09
  1 34 124  4.42351598E-09
  1 34 125  4.42351598E-09
  1 34 126  4.42351598E-09
  1 34 127  4.42351598E-09
  1 34 128  4.42351598E-09
  1 34 129  4.42351598E-09
  1 34 130  4.42351598E-09
  1 34 131  4.42351598E-09
  1 34 132  4.42351598E-09
  1 34 133  4.42351598E-09
  1 34 134  4.42351598E-09
  1 34 135  4.42351598E-09
  1 34 136  4.42351598E-09
  1 34 137  4.42351598E-09
  1 34 138  4.42351598E-09
  1 34 139  3.66738412E-09
  1 34 140  3.66738412E-09
  1 34 141  3.66738412E-09
  1 34 142  3.66738412E-09
  1 34 143  3.66738412E-09
  1 34 144  3.66738412E-09
  1 34 145  3.66738412E-09
  1 34 146  3.66738412E-09
  1 34 147  3.66738412E-09
  1 34 148  3.66738412E-09
  1 34 149  3.66738412E-09
  1 34 150  3.66738412E-09
  1 35 117  4.42351598E-09
  1 35 118  3.66738412E-09
  1 35 119  3.66738412E-09
  1 35 120  4.42351598E-09
  1 35 121  4.42351598E-09
  1 35 122  4.42351598E-09
  1 35 123  4.42351598E-09
  1 35 124  4.42351598E-09
  1 35 125  4.42351598E-09
  1 35 126  4.42351598E-09
  1 35 127  4.42351598E-09
  1 35 128  4.42351598E-09
  1 35 129  4.42351598E-09
  1 35 130  4.42351598E-09
  1 35 131  4.42351598E-09
  1 35 132  4.42351598E-09
  1 35 133  4.42351598E-09
  1 35 134  4.42351598E-09
  1 35 135  4.42351598E-09
  1 35 136  4.42351598E-09
  1 35 137  4.42351598E-09
  1 35 138  4.42351598E-09
  1 35 139  4.42351598E-09
  1 35 140  3.66738412E-09
  1 35 141  3.66738412E-09
  1 35 142  3.66738412E-09
  1 35 143  3.66738412E-09
  1 35 144  3.66738412E-09
  1 35 145  3.66738412E-09
  1 35 146  3.66738412E-09
  1 35 147  3.66738412E-09
  1 35 148  3.66738412E-09
  1 35 149  3.66738412E-09
  1 35 150  3.66738412E-09
  1 36 115  4.42351598E-09
  1 36 116  4.42351598E-09
  1 36 117  4.42351598E-09
  1 36 118  4.42351598E-09
  1 36 119  4.42351598E-09
  1 36 120  4.42351598E-09
  1 36 121  4.42351598E-09
  1 36 122  4.42351598E-09
  1 36 123  4.42351598E-09
  1 36 124  4.42351598E-09
  1 36 125  4.42351598E-09
  1 36 126  4.42351598E-09
  1 36 127  4.42351598E-09
  1 36 128  4.42351598E-09
  1 36 129  4.42351598E-09
  1 36 130  4.42351598E-09
  1 36 131  4.42351598E-09
  1 36 132  4.42351598E-09
  1 36 133  4.42351598E-09
  1 36 134  4.42351598E-09
  1 36 135  4.42351598E-09
  1 36 136  4.42351598E-09
  1 36 137  4.42351598E-09
  1 36 138  4.42351598E-09
  1 36 139  4.42351598E-09
  1 36 140  6.00900558E-09
  1 36 141  6.00900558E-09
  1 36 142  3.66738412E-09
  1 36 143  3.66738412E-09
  1 36 144  3.66738412E-09
  1 36 145  3.66738412E-09
  1 36 146  3.66738412E-09
  1 36 147  3.66738412E-09
  1 36 148  3.66738412E-09
  1 36 149  3.66738412E-09
  1 36 150  3.66738412E-09
  1 37 114  4.42351598E-09
  1 37 115  4.42351598E-09
  1 37 116  4.42351598E-09
  1 37 117  4.42351598E-09
  1 37 118  4.42351598E-09
  1 37 119  4.42351598E-09
  1 37 120  4.42351598E-09
  1 37 121  4.42351598E-09
  1 37 122  4.42351598E-09
  1 37 123  4.42351598E-09
  1 37 124  4.42351598E-09
  1 37 125  4.42351598E-09
  1 37 126  4.42351598E-09
  1 37 127  4.42351598E-09
  1 37 128  4.42351598E-09
  1 37 129  4.42351598E-09
  1 37 130  4.42351598E-09
  1 37 131  4.42351598E-09
  1 37 132  4.42351598E-09
  1 37 133  4.42351598E-09
  1 37 134  4.42351598E-09
  1 37 135  4.42351598E-09
  1 37 136  4.42351598E-09
  1 37 137  4.42351598E-09
  1 37 138  4.42351598E-09
  1 37 139  4.42351598E-09
  1 37 140  6.00900558E-09
  1 37 141  6.00900558E-09
  1 37 142  6.00900558E-09
  1 37 143  3.66738412E-09
  1 37 144  3.66738412E-09
  1 37 145  3.66738412E-09
  1 37 146  3.66738412E-09
  1 37 147  3.66738412E-09
  1 37 148  3.66738412E-09
  1 37 149  3.66738412E-09
  1 37 150  3.66738412E-09
  1 38 113  4.42351598E-09
  1 38 114  4.42351598E-09
  1 38 115  4.42351598E-09
  1 38 116  4.42351598E-09
  1 38 117  4.42351598E-09
  1 38 118  4.42351598E-09
  1 38 119  4.42351598E-09
  1 38 120  4.42351598E-09
  1 38 121  4.42351598E-09
  1 38 122  4.42351598E-09
  1 38 123  4.42351598E-09
  1 38 124  4.42351598E-09
  1 38 125  4.42351598E-09
  1 38 126  4.42351598E-09
  1 38 127  4.42351598E-09
  1 38 128  4.42351598E-09
  1 38 129  4.42351598E-09
  1 38 130  4.42351598E-09
  1 38 131  4.42351598E-09
  1 38 132  4.42351598E-09
  1 38 133  4.42351598E-09
  1 38 134  4.42351598E-09
  1 38 135  4.42351598E-09
  1 38 136  4.42351598E-09
  1 38 137  4.42351598E-09
  1 38 138  4.42351598E-09
  1 38 139  4.42351598E-09
  1 38 140  6.00900558E-09
  1 38 141  6.00900558E-09
  1 38 142  6.00900558E-09
  1 38 143  6.00900558E-09
  1 38 144  6.00900558E-09
  1 38 145  3.66738412E-09
  1 38 146  3.66738412E-09
  1 38 147  3.66738412E-09
  1 38 148  3.66738412E-09
  1 38 149  3.66738412E-09
  1 38 150  3.66738412E-09
  1 39 112  4.80403349E-09
  1 39 113  4.42351598E-09
  1 39 114  4.42351598E-09
  1 39 115  4.42351598E-09
  1 39 116  4.42351598E-09
  1 39 117  4.42351598E-09
  1 39 118  4.42351598E-09
  1 39 119  4.42351598E-09
  1 39 120  4.42351598E-09
  1 39 121  4.42351598E-09
  1 39 122  4.42351598E-09
  1 39 123  4.42351598E-09
  1 39 124  4.42351598E-09
  1 39 125  4.42351598E-09
  1 39 126  4.42351598E-09
  1 39 127  4.42351598E-09
  1 39 128  4.42351598E-09
  1 39 129  4.42351598E-09
  1 39 130  4.42351598E-09
  1 39 131  4.42351598E-09
  1 39 132  4.42351598E-09
  1 39 133  4.42351598E-09
  1 39 134  4.42351598E-09
  1 39 135  4.42351598E-09
  1 39 136  4.42351598E-09
  1 39 137  4.42351598E-09
  1 39 138  4.42351598E-09
  1 39 139  4.42351598E-09
  1 39 140  6.00900558E-09
  1 39 141  6.00900558E-09
  1 39 142  6.00900558E-09
  1 39 143  6.00900558E-09
  1 39 144  6.00900558E-09
  1 39 145  6.00900558E-09
  1 39 146  3.66738412E-09
  1 39 147  3.66738412E-09
  1 39 148  3.66738412E-09
  1 39 149  3.66738412E-09
  1 39 150  3.66738412E-09
  1 40 112  4.80403349E-09
  1 40 113  4.42351598E-09
  1 40 114  4.42351598E-09
  1 40 115  4.42351598E-09
  1 40 116  4.42351598E-09
  1 40 117  4.42351598E-09
  1 40 118  4.42351598E-09
  1 40 119  4.42351598E-09
  1 40 120  4.42351598E-09
  1 40 121  4.42351598E-09
  1 40 122  4.42351598E-09
  1 40 123  4.42351598E-09
  1 40 124  4.42351598E-09
  1 40 125  4.42351598E-09
  1 40 126  4.42351598E-09
  1 40 127  4.42351598E-09
  1 40 128  4.42351598E-09
  1 40 129  4.42351598E-09
  1 40 130  4.42351598E-09
  1 40 131  4.42351598E-09
  1 40 132  4.42351598E-09
  1 40 133  4.42351598E-09
  1 40 134  4.42351598E-09
  1 40 135  4.42351598E-09
  1 40 136  4.42351598E-09
  1 40 137  4.42351598E-09
  1 40 138  4.42351598E-09
  1 40 139  4.42351598E-09
  1 40 140  6.00900558E-09
  1 40 141  6.00900558E-09
  1 40 142  6.00900558E-09
  1 40 143  6.00900558E-09
  1 40 144  6.00900558E-09
  1 40 145  6.00900558E-09
  1 40 146  3.66738412E-09
  1 40 147  3.66738412E-09
  1 40 148  3.66738412E-09
  1 40 149  3.66738412E-09
  1 40 150  3.66738412E-09
  1 41 111  4.80403349E-09
  1 41 112  4.80403349E-09
  1 41 113  4.42351598E-09
  1 41 114  4.42351598E-09
  1 41 115  4.42351598E-09
  1 41 116  4.42351598E-09
  1 41 117  4.42351598E-09
  1 41 118  4.42351598E-09
  1 41 119  4.42351598E-09
  1 41 120  4.42351598E-09
  1 41 121  4.42351598E-09
  1 41 122  4.42351598E-09
  1 41 123  4.42351598E-09
  1 41 124  4.42351598E-09
  1 41 125  4.42351598E-09
  1 41 126  4.42351598E-09
  1 41 127  4.42351598E-09
  1 41 128  4.42351598E-09
  1 41 129  4.42351598E-09
  1 41 130  4.42351598E-09
  1 41 131  4.42351598E-09
  1 41 132  4.42351598E-09
  1 41 133  4.42351598E-09
  1 41 134  4.42351598E-09
  1 41 135  4.42351598E-09
  1 41 136  4.42351598E-09
  1 41 137  4.42351598E-09
  1 41 138  4.42351598E-09
  1 41 139  4.42351598E-09
  1 41 140  6.00900558E-09
  1 41 141  6.00900558E-09
  1 41 142  6.00900558E-09
  1 41 143  6.00900558E-09
  1 41 144  6.00900558E-09
  1 41 145  6.00900558E-09
  1 41 146  3.66738412E-09
  1 41 147  3.66738412E-09
  1 41 148  3.66738412E-09
  1 41 149  3.66738412E-09
  1 41 150  3.66738412E-09
  1 42 110  4.80403349E-09
  1 42 111  4.80403349E-09
  1 42 112  4.80403349E-09
  1 42 113  4.42351598E-09
  1 42 114  4.42351598E-09
  1 42 115  4.42351598E-09
  1 42 116  4.42351598E-09
  1 42 117  4.42351598E-09
  1 42 118  4.42351598E-09
  1 42 119  4.42351598E-09
  1 42 120  4.42351598E-09
  1 42 121  4.42351598E-09
  1 42 122  4.42351598E-09
  1 42 123  4.42351598E-09
  1 42 124  4.42351598E-09
  1 42 125  4.42351598E-09
  1 42 126  4.42351598E-09
  1 42 127  4.42351598E-09
  1 42 128  4.42351598E-09
  1 42 129  4.42351598E-09
  1 42 130  4.42351598E-09
  1 42 131  4.42351598E-09
  1 42 132  4.42351598E-09
  1 42 133  4.42351598E-09
  1 42 134  4.42351598E-09
  1 42 135  4.42351598E-09
  1 42 136  4.42351598E-09
  1 42 137  4.42351598E-09
  1 42 138  4.42351598E-09
  1 42 139  4.42351598E-09
  1 42 140  6.00900558E-09
  1 42 141  6.00900558E-09
  1 42 142  6.00900558E-09
  1 42 143  6.00900558E-09
  1 42 144  6.00900558E-09
  1 42 145  6.00900558E-09
  1 42 146  6.00900558E-09
  1 42 147  3.66738412E-09
  1 42 148  3.66738412E-09
  1 42 149  3.66738412E-09
  1 42 150  3.66738412E-09
  1 43 108  4.80403349E-09
  1 43 109  4.80403349E-09
  1 43 110  4.80403349E-09
  1 43 111  4.80403349E-09
  1 43 112  4.80403349E-09
  1 43 113  4.42351598E-09
  1 43 114  4.42351598E-09
  1 43 115  4.42351598E-09
  1 43 116  4.42351598E-09
  1 43 117  4.42351598E-09
  1 43 118  4.42351598E-09
  1 43 119  4.42351598E-09
  1 43 120  4.42351598E-09
  1 43 121  4.42351598E-09
  1 43 122  4.42351598E-09
  1 43 123  4.42351598E-09
  1 43 124  4.42351598E-09
  1 43 125  4.42351598E-09
  1 43 126  4.42351598E-09
  1 43 127  4.42351598E-09
  1 43 128  4.42351598E-09
  1 43 129  4.42351598E-09
  1 43 130  4.42351598E-09
  1 43 131  4.42351598E-09
  1 43 132  4.42351598E-09
  1 43 133  4.42351598E-09
  1 43 134  4.42351598E-09
  1 43 135  4.42351598E-09
  1 43 136  4.42351598E-09
  1 43 137  4.42351598E-09
  1 43 138  4.42351598E-09
  1 43 139  4.42351598E-09
  1 43 140  6.00900558E-09
  1 43 141  6.00900558E-09
  1 43 142  6.00900558E-09
  1 43 143  6.00900558E-09
  1 43 144  6.00900558E-09
  1 43 145  6.00900558E-09
  1 43 146  6.00900558E-09
  1 43 147  3.66738412E-09
  1 43 148  3.66738412E-09
  1 43 149  3.66738412E-09
  1 43 150  3.66738412E-09
  1 44 107  4.80403349E-09
  1 44 108  4.80403349E-09
  1 44 109  4.80403349E-09
  1 44 110  4.80403349E-09
  1 44 111  4.80403349E-09
  1 44 112  4.80403349E-09
  1 44 113  4.42351598E-09
  1 44 114  4.42351598E-09
  1 44 115  4.42351598E-09
  1 44 116  4.42351598E-09
  1 44 117  4.42351598E-09
  1 44 118  4.42351598E-09
  1 44 119  4.42351598E-09
  1 44 120  4.42351598E-09
  1 44 121  4.42351598E-09
  1 44 122  4.42351598E-09
  1 44 123  4.42351598E-09
  1 44 124  4.42351598E-09
  1 44 125  4.42351598E-09
  1 44 126  4.42351598E-09
  1 44 127  4.42351598E-09
  1 44 128  4.42351598E-09
  1 44 129  4.42351598E-09
  1 44 130  4.42351598E-09
  1 44 131  4.42351598E-09
  1 44 132  4.42351598E-09
  1 44 133  4.42351598E-09
  1 44 134  4.42351598E-09
  1 44 135  4.42351598E-09
  1 44 136  4.42351598E-09
  1 44 137  4.42351598E-09
  1 44 138  4.42351598E-09
  1 44 139  4.42351598E-09
  1 44 140  6.00900558E-09
  1 44 141  6.00900558E-09
  1 44 142  6.00900558E-09
  1 44 143  6.00900558E-09
  1 44 144  6.00900558E-09
  1 44 145  6.00900558E-09
  1 44 146  6.00900558E-09
  1 44 147  3.66738412E-09
  1 44 148  3.66738412E-09
  1 44 149  3.66738412E-09
  1 44 150  3.66738412E-09
  1 45 108  4.80403349E-09
  1 45 109  4.80403349E-09
  1 45 110  4.80403349E-09
  1 45 111  4.80403349E-09
  1 45 112  4.80403349E-09
  1 45 113  4.42351598E-09
  1 45 114  4.42351598E-09
  1 45 115  4.42351598E-09
  1 45 116  4.42351598E-09
  1 45 117  4.42351598E-09
  1 45 118  4.42351598E-09
  1 45 119  4.42351598E-09
  1 45 120  4.42351598E-09
  1 45 121  4.42351598E-09
  1 45 122  4.42351598E-09
  1 45 123  4.42351598E-09
  1 45 124  4.42351598E-09
  1 45 125  4.42351598E-09
  1 45 126  4.42351598E-09
  1 45 127  4.42351598E-09
  1 45 128  4.42351598E-09
  1 45 129  4.42351598E-09
  1 45 130  4.42351598E-09
  1 45 131  4.42351598E-09
  1 45 132  4.42351598E-09
  1 45 133  4.42351598E-09
  1 45 134  4.42351598E-09
  1 45 135  4.42351598E-09
  1 45 136  4.42351598E-09
  1 45 137  4.42351598E-09
  1 45 138  4.42351598E-09
  1 45 139  4.42351598E-09
  1 45 140  6.00900558E-09
  1 45 141  6.00900558E-09
  1 45 142  6.00900558E-09
  1 45 143  6.00900558E-09
  1 45 144  6.00900558E-09
  1 45 145  6.00900558E-09
  1 45 146  6.00900558E-09
  1 45 147  3.66738412E-09
  1 45 148  3.66738412E-09
  1 45 149  3.66738412E-09
  1 45 150  3.66738412E-09
  1 46 109  4.80403349E-09
  1 46 110  4.80403349E-09
  1 46 111  4.80403349E-09
  1 46 112  4.80403349E-09
  1 46 113  4.42351598E-09
  1 46 114  4.42351598E-09
  1 46 115  4.42351598E-09
  1 46 116  4.42351598E-09
  1 46 117  4.42351598E-09
  1 46 118  4.42351598E-09
  1 46 119  4.42351598E-09
  1 46 120  4.42351598E-09
  1 46 121  4.42351598E-09
  1 46 122  4.42351598E-09
  1 46 123  4.42351598E-09
  1 46 124  4.42351598E-09
  1 46 125  4.42351598E-09
  1 46 126  4.42351598E-09
  1 46 127  4.42351598E-09
  1 46 128  4.42351598E-09
  1 46 129  4.42351598E-09
  1 46 130  4.42351598E-09
  1 46 131  4.42351598E-09
  1 46 132  4.42351598E-09
  1 46 133  4.42351598E-09
  1 46 134  4.42351598E-09
  1 46 135  4.42351598E-09
  1 46 136  4.42351598E-09
  1 46 137  4.42351598E-09
  1 46 138  4.42351598E-09
  1 46 139  4.42351598E-09
  1 46 140  6.00900558E-09
  1 46 141  6.00900558E-09
  1 46 142  6.00900558E-09
  1 46 143  6.00900558E-09
  1 46 144  6.00900558E-09
  1 46 145  6.00900558E-09
  1 46 146  6.00900558E-09
  1 46 147  3.66738412E-09
  1 46 148  3.66738412E-09
  1 46 149  3.66738412E-09
  1 46 150  3.66738412E-09
  1 47 109  4.80403349E-09
  1 47 110  4.80403349E-09
  1 47 111  4.80403349E-09
  1 47 112  4.80403349E-09
  1 47 113  4.42351598E-09
  1 47 114  4.42351598E-09
  1 47 115  4.42351598E-09
  1 47 116  4.42351598E-09
  1 47 117  4.42351598E-09
  1 47 118  4.42351598E-09
  1 47 119  4.42351598E-09
  1 47 120  4.42351598E-09
  1 47 121  4.42351598E-09
  1 47 122  4.42351598E-09
  1 47 123  4.42351598E-09
  1 47 124  4.42351598E-09
  1 47 125  4.42351598E-09
  1 47 126  4.42351598E-09
  1 47 127  4.42351598E-09
  1 47 128  4.42351598E-09
  1 47 129  4.42351598E-09
  1 47 130  4.42351598E-09
  1 47 131  4.42351598E-09
  1 47 132  4.42351598E-09
  1 47 133  4.42351598E-09
  1 47 134  4.42351598E-09
  1 47 135  4.42351598E-09
  1 47 136  4.42351598E-09
  1 47 137  4.42351598E-09
  1 47 138  4.42351598E-09
  1 47 139  4.42351598E-09
  1 47 140  6.00900558E-09
  1 47 141  6.00900558E-09
  1 47 142  6.00900558E-09
  1 47 143  6.00900558E-09
  1 47 144  6.00900558E-09
  1 47 145  6.00900558E-09
  1 47 146  6.00900558E-09
  1 47 147  3.66738412E-09
  1 47 148  3.66738412E-09
  1 47 149  3.66738412E-09
  1 47 150  3.66738412E-09
  1 48 108  4.80403349E-09
  1 48 109  4.80403349E-09
  1 48 110  4.80403349E-09
  1 48 111  4.80403349E-09
  1 48 112  4.80403349E-09
  1 48 113  4.42351598E-09
  1 48 114  4.42351598E-09
  1 48 115  4.42351598E-09
  1 48 116  4.42351598E-09
  1 48 117  4.42351598E-09
  1 48 118  4.42351598E-09
  1 48 119  4.42351598E-09
  1 48 120  4.42351598E-09
  1 48 121  4.42351598E-09
  1 48 122  4.42351598E-09
  1 48 123  4.42351598E-09
  1 48 124  4.42351598E-09
  1 48 125  4.42351598E-09
  1 48 126  4.42351598E-09
  1 48 127  4.42351598E-09
  1 48 128  4.42351598E-09
  1 48 129  4.42351598E-09
  1 48 130  4.42351598E-09
  1 48 131  4.42351598E-09
  1 48 132  4.42351598E-09
  1 48 133  4.42351598E-09
  1 48 134  4.42351598E-09
  1 48 135  4.42351598E-09
  1 48 136  4.42351598E-09
  1 48 137  4.42351598E-09
  1 48 138  4.42351598E-09
  1 48 139  4.42351598E-09
  1 48 140  6.00900558E-09
  1 48 141  6.00900558E-09
  1 48 142  6.00900558E-09
  1 48 143  6.00900558E-09
  1 48 144  6.00900558E-09
  1 48 145  6.00900558E-09
  1 48 146  6.00900558E-09
  1 48 147  3.66738412E-09
  1 48 148  3.66738412E-09
  1 48 149  3.66738412E-09
  1 48 150  3.66738412E-09
  1 49 96  4.31253171E-09
  1 49 97  4.31253171E-09
  1 49 98  4.31253171E-09
  1 49 99  4.31253171E-09
  1 49 100  4.31253171E-09
  1 49 107  4.31253171E-09
  1 49 108  4.31253171E-09
  1 49 109  4.31253171E-09
  1 49 110  4.31253171E-09
  1 49 111  4.31253171E-09
  1 49 112  4.31253171E-09
  1 49 113  4.20154744E-09
  1 49 114  4.20154744E-09
  1 49 115  4.20154744E-09
  1 49 116  4.20154744E-09
  1 49 117  4.20154744E-09
  1 49 118  4.20154744E-09
  1 49 119  4.20154744E-09
  1 49 120  4.20154744E-09
  1 49 121  4.20154744E-09
  1 49 122  4.20154744E-09
  1 49 123  4.20154744E-09
  1 49 124  4.20154744E-09
  1 49 125  4.20154744E-09
  1 49 126  4.20154744E-09
  1 49 127  4.20154744E-09
  1 49 128  4.20154744E-09
  1 49 129  4.20154744E-09
  1 49 130  4.20154744E-09
  1 49 131  4.20154744E-09
  1 49 132  4.20154744E-09
  1 49 133  4.20154744E-09
  1 49 134  4.20154744E-09
  1 49 135  4.20154744E-09
  1 49 136  4.20154744E-09
  1 49 137  4.20154744E-09
  1 49 138  4.20154744E-09
  1 49 139  4.20154744E-09
  1 49 140  6.18340944E-09
  1 49 141  6.18340944E-09
  1 49 142  6.18340944E-09
  1 49 143  6.18340944E-09
  1 49 144  6.18340944E-09
  1 49 145  6.18340944E-09
  1 49 146  6.18340944E-09
  1 49 147  3.66738412E-09
  1 49 148  3.66738412E-09
  1 49 149  3.66738412E-09
  1 49 150  3.66738412E-09
  1 50 89  4.31253171E-09
  1 50 90  4.31253171E-09
  1 50 91  4.31253171E-09
  1 50 92  4.31253171E-09
  1 50 93  4.31253171E-09
  1 50 94  4.31253171E-09
  1 50 95  4.31253171E-09
  1 50 96  4.31253171E-09
  1 50 97  4.31253171E-09
  1 50 98  4.31253171E-09
  1 50 99  4.31253171E-09
  1 50 100  4.31253171E-09
  1 50 101  4.31253171E-09
  1 50 102  4.31253171E-09
  1 50 103  4.31253171E-09
  1 50 104  4.31253171E-09
  1 50 105  4.31253171E-09
  1 50 106  4.31253171E-09
  1 50 107  4.31253171E-09
  1 50 108  4.31253171E-09
  1 50 109  4.31253171E-09
  1 50 110  4.31253171E-09
  1 50 111  4.31253171E-09
  1 50 112  4.31253171E-09
  1 50 113  4.20154744E-09
  1 50 114  4.20154744E-09
  1 50 115  4.20154744E-09
  1 50 116  4.20154744E-09
  1 50 117  4.20154744E-09
  1 50 118  4.20154744E-09
  1 50 119  4.20154744E-09
  1 50 120  4.20154744E-09
  1 50 121  4.20154744E-09
  1 50 122  4.20154744E-09
  1 50 123  4.20154744E-09
  1 50 124  4.20154744E-09
  1 50 125  4.20154744E-09
  1 50 126  4.20154744E-09
  1 50 127  4.20154744E-09
  1 50 128  4.20154744E-09
  1 50 129  4.20154744E-09
  1 50 130  4.20154744E-09
  1 50 131  4.20154744E-09
  1 50 132  4.20154744E-09
  1 50 133  4.20154744E-09
  1 50 134  4.20154744E-09
  1 50 135  4.20154744E-09
  1 50 136  4.20154744E-09
  1 50 137  4.20154744E-09
  1 50 138  4.20154744E-09
  1 50 139  4.20154744E-09
  1 50 140  6.18340944E-09
  1 50 141  6.18340944E-09
  1 50 142  6.18340944E-09
  1 50 143  6.18340944E-09
  1 50 144  6.18340944E-09
  1 50 145  6.18340944E-09
  1 50 146  6.18340944E-09
  1 50 147  3.66738412E-09
  1 50 148  3.66738412E-09
  1 50 149  3.66738412E-09
  1 50 150  3.66738412E-09
  1 51 90  4.31253171E-09
  1 51 91  4.31253171E-09
  1 51 92  4.31253171E-09
  1 51 93  4.31253171E-09
  1 51 94  4.31253171E-09
  1 51 95  4.31253171E-09
  1 51 96  4.31253171E-09
  1 51 97  4.31253171E-09
  1 51 98  4.31253171E-09
  1 51 99  4.31253171E-09
  1 51 100  4.31253171E-09
  1 51 101  4.31253171E-09
  1 51 102  4.31253171E-09
  1 51 103  4.31253171E-09
  1 51 104  4.31253171E-09
  1 51 105  4.31253171E-09
  1 51 106  4.31253171E-09
  1 51 107  4.31253171E-09
  1 51 108  4.31253171E-09
  1 51 109  4.31253171E-09