BEGIN griddata
  strt  LAYERED
    INTERNAL  FACTOR  1.0
           1.00000000       1.00000000       1.00000000       1.00000000       1.00000000       1.00000000       1.00000000       1.00000000       1.00000000       1.00000000       1.00000000       1.00000000       1.00000000       1.00000000       1.00000000       1.00000000       1.00000000       1.00000000       1.00000000       1.00000000
           1.00000000       1.00000000       1.00000000       1.00000000       1.00000000       1.00000000       1.00000000       1.00000000       1.00000000       1.00000000       1.00000000       1.00000000       1.00000000       1.00000000       1.00000000       1.00000000       1.00000000       1.00000000       1.00000000       1.00000000
           1.00000000       1.00000000       1.00000000       1.00000000       1.00000000       1.00000000       1.00000000       1.00000000       1.00000000       1.00000000       1.00000000       1.00000000       1.00000000       1.00000000       1.00000000       1.00000000       1.00000000       1.00000000       1.00000000       1.00000000
           1.00000000       1.00000000       1.00000000       1.00000000       1.00000000       1.00000000       1.00000000       1.00000000       1.00000000       1.00000000       1.00000000       1.00000000       1.00000000       1.00000000       1.00000000       1.00000000       1.00000000       1.00000000       1.00000000       1.00000000
           1.00000000       1.00000000       1.00000000       1.00000000       1.00000000       1.00000000       1.00000000       1.00000000       1.00000000       1.00000000       1.00000000       1.00000000       1.00000000       1.00000000       1.00000000       1.00000000       1.00000000       1.00000000       1.00000000       1.00000000
           1.00000000       1.00000000       1.00000000       1.00000000       1.00000000       1.00000000       1.00000000       1.00000000       1.00000000       1.00000000       1.00000000       1.00000000       1.00000000       1.00000000       1.00000000       1.00000000       1.00000000       1.00000000       1.00000000       1.00000000
           1.00000000       1.00000000       1.00000000       1.00000000       1.00000000       1.00000000       1.00000000       1.00000000       1.00000000       1.00000000       1.00000000       1.00000000       1.00000000       1.00000000       1.00000000       9.38636398       4.93181801       2.11363602      -0.88636339      -2.52272701
          -2.52272701      -2.25000000      -2.25000000      -2.67891598      -0.94396544      -1.55660391      -6.21875000      -7.50648212      -8.66538525     -11.18846035
           1.00000000       1.00000000       1.00000000       1.00000000       1.00000000       1.00000000       1.00000000       1.00000000       1.00000000       1.00000000       1.00000000       1.00000000       1.00000000       1.00000000       1.00000000       1.00000000       1.00000000       1.00000000       1.00000000       1.00000000
           1.00000000       1.00000000       1.00000000       1.00000000       1.00000000       1.00000000       1.00000000       1.00000000       1.00000000       1.00000000       1.00000000       1.00000000       1.00000000       1.00000000       1.00000000       1.00000000       1.00000000       1.00000000       1.00000000       1.00000000
           1.00000000       1.00000000       1.00000000       1.00000000       1.00000000       1.00000000       1.00000000       1.00000000       1.00000000       1.00000000       1.00000000       1.00000000       1.00000000       1.00000000       1.00000000       1.00000000       1.00000000       1.00000000       1.00000000       1.00000000
           1.00000000       1.00000000       1.00000000       1.00000000       1.00000000       1.00000000       1.00000000       1.00000000       1.00000000       1.00000000       1.00000000       1.00000000       1.00000000       1.00000000       1.00000000       1.00000000       1.00000000       1.00000000       1.00000000       1.00000000
           1.00000000       1.00000000       1.00000000       1.00000000       1.00000000       1.00000000       1.00000000       1.00000000       1.00000000       1.00000000       1.00000000       1.00000000       1.00000000       1.00000000       1.00000000       1.00000000       1.00000000       1.00000000       1.00000000       1.00000000
           1.00000000       1.00000000       1.00000000       1.00000000       1.00000000       1.00000000       1.00000000       1.00000000       1.00000000       1.00000000       1.00000000       1.00000000       1.00000000       1.00000000       1.00000000       1.00000000       1.00000000       1.00000000       1.00000000       1.00000000
           1.00000000       1.00000000       1.00000000       1.00000000       1.00000000       1.00000000       1.00000000       1.00000000       1.00000000       1.00000000       1.00000000       1.00000000      16.38376999      13.53960991       9.24090958       5.79285717       2.77337694       0.22142869      -0.10974014      -1.47986984
           0.38561654      -0.97426462      -0.50873029       2.26982808       0.00566053      -3.74375010      -4.45048094      -6.61538506      -9.14230824     -10.55288029
           1.00000000       1.00000000       1.00000000       1.00000000       1.00000000       1.00000000       1.00000000       1.00000000       1.00000000       1.00000000       1.00000000       1.00000000       1.00000000       1.00000000       1.00000000       1.00000000       1.00000000       1.00000000       1.00000000       1.00000000
           1.00000000       1.00000000       1.00000000       1.00000000       1.00000000       1.00000000       1.00000000       1.00000000       1.00000000       1.00000000       1.00000000       1.00000000       1.00000000       1.00000000       1.00000000       1.00000000       1.00000000       1.00000000       1.00000000       1.00000000
           1.00000000       1.00000000       1.00000000       1.00000000       1.00000000       1.00000000       1.00000000       1.00000000       1.00000000       1.00000000       1.00000000       1.00000000       1.00000000       1.00000000       1.00000000       1.00000000       1.00000000       1.00000000       1.00000000       1.00000000
           1.00000000       1.00000000       1.00000000       1.00000000       1.00000000       1.00000000       1.00000000       1.00000000       1.00000000       1.00000000       1.00000000       1.00000000       1.00000000       1.00000000       1.00000000       1.00000000       1.00000000       1.00000000       1.00000000       1.00000000
           1.00000000       1.00000000       1.00000000       1.00000000       1.00000000       1.00000000       1.00000000       1.00000000       1.00000000       1.00000000       1.00000000       1.00000000       1.00000000       1.00000000       1.00000000       1.00000000       1.00000000       1.00000000       1.00000000       1.00000000
           1.00000000       1.00000000       1.00000000       1.00000000       1.00000000       1.00000000       1.00000000       1.00000000       1.00000000       1.00000000       1.00000000       1.00000000       1.00000000       1.00000000       1.00000000       1.00000000       1.00000000       1.00000000       1.00000000       1.00000000
           1.00000000       1.00000000       1.00000000       1.00000000       1.00000000       1.00000000       1.00000000       1.00000000       1.00000000      23.54999924      19.97857094      17.04999924      13.55000019       8.69285679       6.19285679       3.12142897       1.26428604       2.12142897       0.33571434       1.35000002
           1.09926498       1.84365106       5.25948286       0.70972770      -1.26874995      -2.13076901      -4.13028812      -6.33846092      -8.63173008     -10.92500019
           1.00000000       1.00000000       1.00000000       1.00000000       1.00000000       1.00000000       1.00000000       1.00000000       1.00000000       1.00000000       1.00000000       1.00000000       1.00000000       1.00000000       1.00000000       1.00000000       1.00000000     577.50000000     561.00000000     538.00000000
         546.50000000     522.50000000     458.50000000     401.50000000     415.50000000     470.00000000     458.50000000     401.00000000     369.00000000     340.50000000     343.50000000     341.00000000     348.50000000     343.00000000     355.00000000     395.00000000     366.00000000     441.50000000     426.00000000     431.50000000
         489.00000000     555.00000000     531.00000000     467.50000000     420.00000000     442.00000000     397.00000000     369.00000000       1.00000000       1.00000000       1.00000000       1.00000000       1.00000000       1.00000000       1.00000000       1.00000000       1.00000000       1.00000000       1.00000000       1.00000000
           1.00000000       1.00000000       1.00000000       1.00000000       1.00000000       1.00000000       1.00000000       1.00000000       1.00000000       1.00000000       1.00000000       1.00000000       1.00000000       1.00000000       1.00000000       1.00000000       1.00000000       1.00000000       1.00000000       1.00000000
           1.00000000       1.00000000       1.00000000       1.00000000       1.00000000       1.00000000       1.00000000       1.00000000       1.00000000       1.00000000       1.00000000       1.00000000       1.00000000       1.00000000       1.00000000       1.00000000       1.00000000       1.00000000       1.00000000       1.00000000
           1.00000000       1.00000000       1.00000000       1.00000000       1.00000000       1.00000000       1.00000000       1.00000000       1.00000000       1.00000000       1.00000000       1.00000000       1.00000000       1.00000000       1.00000000       1.00000000       1.00000000       1.00000000       1.00000000       1.00000000
           1.00000000       1.00000000       1.00000000       1.00000000       1.00000000      37.00000000      32.50000000      27.50000000      24.00000000      21.50000000      17.50000000      12.50000000      10.00000000       7.00000000       4.00000000       3.00000000       3.50000000       2.50000000       4.50000000       4.50000000
           9.50000000       9.00000000       3.50000000       1.16666698       0.27031511      -1.95854092      -4.18739700      -6.80856609      -9.04311752     -11.27196980
           1.00000000       1.00000000       1.00000000       1.00000000       1.00000000       1.00000000       1.00000000       1.00000000       1.00000000       1.00000000       1.00000000       1.00000000       1.00000000       1.00000000       1.00000000       1.00000000       1.00000000     556.00000000     521.50000000     531.50000000
         483.00000000     486.00000000     363.50000000     380.50000000     384.50000000     404.00000000     400.00000000     399.50000000     360.50000000     373.50000000     341.50000000     342.50000000     364.00000000     331.50000000     348.00000000     390.50000000     370.50000000     393.00000000     386.00000000     446.00000000
         513.50000000     620.50000000     594.00000000     523.00000000     540.00000000     574.00000000     457.50000000     441.00000000     407.50000000     403.50000000     315.50000000     266.50000000     272.00000000     248.00000000     214.50000000     216.50000000     276.00000000     361.50000000     334.00000000     337.50000000
         320.50000000     339.50000000     312.50000000     273.00000000     301.00000000     302.50000000     260.00000000     279.00000000     281.50000000     278.00000000     320.00000000     387.50000000     380.00000000     304.50000000     286.50000000     264.00000000     258.50000000     251.50000000     236.00000000     261.00000000
         337.00000000     319.00000000     330.00000000     285.00000000     243.50000000     175.50000000     205.00000000     305.00000000     286.00000000     297.50000000     386.50000000     447.50000000     525.50000000     559.50000000     494.50000000     403.50000000     354.50000000     320.00000000     369.00000000     362.50000000
         431.00000000     336.50000000     244.50000000     216.50000000     216.00000000     184.50000000     190.00000000     185.50000000     188.50000000     154.00000000     211.50000000     224.50000000     223.00000000     208.50000000     200.50000000     184.00000000     180.50000000     166.50000000     166.00000000     148.00000000
         116.50000000      98.00000000      73.50000000      53.50000000      44.00000000      42.00000000      33.00000000      30.00000000      27.00000000      22.50000000      16.50000000      13.00000000       9.50000000       6.50000000       3.00000000       3.00000000       2.50000000       7.50000000      36.50000000      38.00000000
          40.50000000      49.50000000      51.50000000      12.00000000       1.00000000       0.42951906      -1.79933691      -4.42620182      -6.65505791      -9.14833355
           1.00000000       1.00000000       1.00000000       1.00000000       1.00000000       1.00000000       1.00000000       1.00000000       1.00000000       1.00000000       1.00000000       1.00000000       1.00000000       1.00000000       1.00000000       1.00000000       1.00000000     527.00000000     529.00000000     512.50000000
         501.00000000     462.00000000     404.00000000     353.50000000     383.00000000     410.50000000     385.00000000     360.50000000     363.00000000     390.00000000     378.50000000     327.00000000     337.00000000     347.50000000     369.00000000     399.50000000     362.50000000     375.50000000     416.00000000     421.50000000
         522.00000000     617.50000000     661.50000000     589.00000000     612.50000000     619.50000000     565.50000000     546.00000000     480.00000000     406.00000000     328.50000000     281.50000000     281.00000000     255.00000000     260.50000000     215.00000000     280.50000000     285.50000000     299.50000000     343.50000000
         304.50000000     328.50000000     311.50000000     253.00000000     284.50000000     252.50000000     238.00000000     263.00000000     280.50000000     302.00000000     322.00000000     356.00000000     335.50000000     294.00000000     276.00000000     283.50000000     347.50000000     333.50000000     254.00000000     259.50000000
         234.50000000     244.00000000     230.00000000     245.50000000     196.50000000     257.00000000     315.50000000     252.50000000     418.50000000     319.00000000     283.00000000     378.00000000     512.50000000     515.50000000     420.50000000     381.50000000     358.50000000     373.50000000     445.00000000     474.50000000
         517.00000000     402.00000000     277.50000000     269.00000000     209.50000000     205.00000000     184.00000000     178.00000000     168.00000000     206.00000000     242.50000000     231.50000000     227.00000000     215.50000000     199.50000000     193.00000000     174.00000000     142.00000000     132.00000000     107.50000000
          80.50000000      90.50000000      83.50000000      73.00000000      56.00000000      40.50000000      30.50000000      27.00000000      26.50000000      22.50000000      19.50000000      14.00000000       9.50000000       4.50000000       4.00000000       5.00000000       3.00000000      34.00000000      39.50000000      38.00000000
          38.00000000      46.00000000      48.50000000      49.50000000    -104.40609741       1.00000000       1.00000000      -2.65000010      -1.53684187      -7.22986984
           1.00000000       1.00000000       1.00000000       1.00000000       1.00000000       1.00000000       1.00000000       1.00000000       1.00000000       1.00000000       1.00000000       1.00000000       1.00000000       1.00000000       1.00000000       1.00000000       1.00000000     562.50000000     552.00000000     472.00000000
         460.00000000     487.50000000     388.00000000     410.50000000     366.00000000     332.50000000     334.50000000     333.00000000     354.50000000     362.50000000     376.00000000     361.50000000     361.50000000     325.00000000     320.00000000     336.00000000     319.50000000     359.50000000     385.00000000     439.50000000
         510.00000000     567.00000000     647.00000000     705.00000000     708.50000000     771.00000000     704.50000000     601.50000000     508.50000000     427.00000000     344.00000000     278.00000000     254.00000000     244.50000000     231.00000000     217.00000000     265.50000000     278.00000000     339.50000000     375.00000000
         324.50000000     298.00000000     327.50000000     266.50000000     263.00000000     255.50000000     280.50000000     351.50000000     371.50000000     303.00000000     395.50000000     439.50000000     393.00000000     330.50000000     319.50000000     285.50000000     382.50000000     314.00000000     345.00000000     361.50000000
         325.50000000     227.50000000     256.00000000     220.00000000     238.50000000     335.00000000     422.50000000     307.00000000     335.50000000     442.50000000     443.50000000     432.50000000     464.00000000     506.00000000     448.50000000     472.00000000     467.00000000     440.00000000     521.00000000     581.00000000
         511.50000000     402.50000000     407.50000000     346.00000000     236.50000000     205.50000000     206.50000000     184.50000000     177.00000000     229.00000000     247.00000000     228.50000000     189.50000000     188.50000000     192.50000000     147.00000000     131.00000000     100.00000000     101.00000000     110.50000000
         116.00000000      68.50000000      60.50000000      71.50000000      65.00000000      55.00000000      37.50000000      30.50000000      26.50000000      21.00000000      19.00000000      15.50000000      11.50000000       7.50000000       3.50000000       5.50000000       1.00000000      13.00000000      40.00000000      41.00000000
          43.00000000      41.50000000      46.50000000      54.50000000      56.50000000      58.00000000     -97.79730225     -92.15190125       1.00000000      -7.27346897
           1.00000000       1.00000000       1.00000000       1.00000000       1.00000000       1.00000000       1.00000000       1.00000000       1.00000000       1.00000000       1.00000000       1.00000000       1.00000000       1.00000000       1.00000000       1.00000000       1.00000000     539.00000000     536.00000000     471.00000000
         440.50000000     439.00000000     378.00000000     405.50000000     447.50000000     376.00000000     339.00000000     323.00000000     340.50000000     333.00000000     349.50000000     429.50000000     451.00000000     360.50000000     306.00000000     356.00000000     380.50000000     380.50000000     386.50000000     427.00000000
         475.50000000     539.00000000     603.00000000     737.00000000     749.50000000     822.50000000     827.50000000     673.00000000     540.00000000     447.00000000     364.00000000     293.00000000     280.50000000     253.00000000     230.00000000     198.00000000     248.50000000     325.00000000     353.00000000     338.00000000
         333.00000000     292.00000000     365.00000000     300.50000000     232.50000000     226.00000000     303.00000000     405.50000000     448.50000000     367.50000000     406.00000000     495.50000000     458.00000000     402.00000000     316.50000000     302.00000000     365.50000000     324.00000000     361.50000000     297.50000000
         240.50000000     281.00000000     342.00000000     243.00000000     255.50000000     352.50000000     445.50000000     364.50000000     381.50000000     530.00000000     581.00000000     514.00000000     483.50000000     540.50000000     501.50000000     535.50000000     610.00000000     575.50000000     604.00000000     605.00000000
         504.50000000     447.50000000     385.50000000     293.50000000     227.50000000     224.50000000     221.00000000     196.00000000     207.00000000     274.00000000     261.00000000     251.50000000     175.50000000     144.50000000     137.00000000     182.50000000     132.50000000     132.50000000     115.00000000     121.50000000
         110.50000000      86.50000000      90.50000000      88.00000000      75.50000000      63.00000000      59.50000000      46.00000000      28.50000000      22.50000000      20.00000000      15.50000000      11.50000000       8.00000000       4.00000000       1.16129005       2.35714293      13.50000000      42.00000000      50.00000000
          49.96609879      48.50000000      56.50000000      50.00000000      57.00000000      57.50000000      47.50000000      45.50000000       1.00000000      -3.90909100
           1.00000000       1.00000000       1.00000000       1.00000000       1.00000000       1.00000000       1.00000000       1.00000000       1.00000000       1.00000000       1.00000000       1.00000000       1.00000000       1.00000000       1.00000000       1.00000000       1.00000000     482.50000000     500.00000000     458.00000000
         495.00000000     521.00000000     495.00000000     424.50000000     477.00000000     423.00000000     408.50000000     363.00000000     333.50000000     403.50000000     417.50000000     442.00000000     455.50000000     389.00000000     300.00000000     372.00000000     380.50000000     364.00000000     430.00000000     448.00000000
         474.00000000     513.50000000     596.00000000     706.50000000     829.50000000     852.50000000     808.50000000     648.00000000     522.00000000     478.50000000     395.50000000     342.00000000     324.00000000     272.50000000     232.50000000     198.00000000     254.50000000     343.50000000     342.00000000     302.00000000
         309.50000000     281.50000000     334.00000000     297.00000000     273.00000000     223.00000000     303.50000000     351.00000000     412.50000000     405.50000000     387.00000000     443.50000000     437.50000000     388.50000000     327.00000000     363.00000000     418.00000000     368.00000000     320.00000000     337.50000000
         388.00000000     371.00000000     376.00000000     247.50000000     341.50000000     451.00000000     499.50000000     396.00000000     523.50000000     596.50000000     614.50000000     519.00000000     549.50000000     576.50000000     590.50000000     606.00000000     670.50000000     666.50000000     610.00000000     543.00000000
         491.00000000     444.00000000     362.00000000     309.00000000     298.00000000     224.00000000     259.00000000     263.00000000     264.50000000     258.50000000     257.50000000     261.00000000     235.00000000     185.50000000     151.50000000     126.50000000     118.50000000     170.50000000     184.00000000     145.00000000
         116.50000000      81.50000000      82.00000000      68.00000000      75.00000000      66.50000000      65.50000000      57.00000000      34.00000000      24.50000000      20.50000000      16.00000000      11.50000000       9.50000000       5.00000000       1.00000000       1.42391300       1.81818199      44.50000000      48.50000000
          48.00000000      56.00000000      47.50000000      50.50000000      47.50000000      40.50000000      42.00000000      47.00000000     -65.88231659     -58.74487305
           1.00000000       1.00000000       1.00000000       1.00000000       1.00000000       1.00000000       1.00000000       1.00000000       1.00000000       1.00000000       1.00000000       1.00000000       1.00000000       1.00000000       1.00000000       1.00000000       1.00000000     460.00000000     462.50000000     512.50000000
         554.50000000     586.50000000     527.00000000     497.50000000     530.00000000     539.50000000     508.50000000     471.50000000     387.50000000     320.00000000     354.50000000     358.50000000     373.00000000     362.00000000     350.50000000     291.50000000     352.00000000     342.50000000     362.50000000     372.00000000
         406.00000000     472.00000000     561.00000000     682.50000000     832.00000000     866.50000000     786.50000000     682.50000000     608.50000000     559.50000000     470.00000000     413.00000000     355.50000000     289.00000000     249.00000000     197.00000000     234.50000000     277.50000000     303.50000000     277.00000000
         325.50000000     290.00000000     323.50000000     268.00000000     225.00000000     284.50000000     288.50000000     355.50000000     364.00000000     394.00000000     441.00000000     497.00000000     492.50000000     431.00000000     456.00000000     450.50000000     406.50000000     398.50000000     336.00000000     387.50000000
         387.00000000     385.50000000     371.00000000     343.50000000     381.00000000     483.50000000     545.50000000     505.00000000     452.50000000     539.00000000     605.50000000     563.50000000     577.00000000     583.00000000     644.50000000     682.50000000     700.50000000     664.00000000     565.50000000     478.00000000
         452.50000000     511.50000000     457.50000000     374.50000000     296.00000000     232.00000000     319.00000000     349.00000000     295.00000000     243.00000000     236.00000000     224.00000000     205.50000000     143.50000000     156.50000000     164.50000000     133.50000000     172.50000000     206.00000000     175.50000000
         139.00000000      94.00000000      92.00000000      75.50000000      78.50000000      74.50000000      68.00000000      60.00000000      43.50000000      29.50000000      20.00000000      14.00000000       9.50000000       9.50000000       5.00000000       1.00000000       1.00000000       1.41044796      29.00000000      48.50000000
          51.00000000      46.50000000      46.00000000      52.50000000      53.00000000      56.50000000      44.50000000      47.50000000      41.00000000     -47.86240005
           1.00000000       1.00000000       1.00000000       1.00000000       1.00000000       1.00000000       1.00000000       1.00000000       1.00000000       1.00000000       1.00000000       1.00000000       1.00000000       1.00000000       1.00000000       1.00000000       1.00000000     525.00000000     550.50000000     596.50000000
         610.50000000     605.00000000     582.00000000     542.50000000     574.00000000     571.00000000     562.50000000     474.00000000     406.00000000     329.50000000     316.00000000     316.50000000     305.00000000     294.50000000     313.50000000     282.50000000     295.50000000     363.00000000     419.50000000     380.00000000
         448.00000000     485.00000000     543.50000000     675.00000000     837.50000000     870.50000000     844.00000000     812.00000000     779.00000000     662.00000000     518.50000000     435.50000000     370.00000000     280.50000000     237.00000000     196.50000000     208.50000000     320.50000000     294.00000000     304.00000000
         381.50000000     300.00000000     264.50000000     289.50000000     208.00000000     307.00000000     287.50000000     277.00000000     329.00000000     356.50000000     377.00000000     414.00000000     444.50000000     457.00000000     438.50000000     441.50000000     430.00000000     377.00000000     328.50000000     387.00000000
         382.00000000     386.50000000     374.50000000     374.00000000     420.50000000     459.00000000     509.50000000     600.00000000     547.00000000     533.00000000     603.00000000     662.50000000     668.00000000     666.00000000     671.00000000     693.00000000     638.50000000     564.50000000     485.50000000     422.50000000
         425.50000000     487.50000000     490.00000000     464.00000000     378.00000000     277.50000000     399.00000000     366.50000000     257.50000000     204.00000000     214.50000000     218.50000000     162.50000000     194.50000000     205.00000000     190.50000000     156.00000000     179.50000000     192.50000000     162.50000000
         148.50000000     124.00000000      99.00000000      94.00000000      84.00000000      72.00000000      58.50000000      49.00000000      42.00000000      34.00000000      27.50000000      23.50000000       8.50000000       5.00000000       1.50000000       1.43333304       2.00476193       2.57618999      12.50000000      47.00000000
          47.50000000      47.50000000      40.50000000      43.00000000      52.50000000      50.50000000      31.50000000      37.50000000      39.00000000     -36.04961014
           1.00000000       1.00000000       1.00000000       1.00000000       1.00000000       1.00000000       1.00000000       1.00000000       1.00000000       1.00000000       1.00000000       1.00000000       1.00000000       1.00000000       1.00000000       1.00000000       1.00000000     620.00000000     593.00000000     590.50000000
         594.50000000     572.00000000     554.00000000     540.00000000     518.00000000     513.50000000     523.50000000     462.00000000     403.00000000     346.50000000     384.00000000     385.50000000     362.50000000     341.50000000     304.50000000     287.50000000     321.50000000     420.00000000     471.50000000     415.50000000
         453.00000000     531.00000000     566.50000000     700.00000000     777.00000000     853.00000000     854.00000000     763.50000000     719.50000000     617.00000000     531.00000000     478.50000000     418.00000000     347.50000000     273.00000000     213.50000000     187.50000000     278.00000000     265.00000000     288.50000000
         377.00000000     330.00000000     255.50000000     274.00000000     201.50000000     230.50000000     250.50000000     268.00000000     299.00000000     272.00000000     304.00000000     369.00000000     395.50000000     401.50000000     411.50000000     414.00000000     399.00000000     368.00000000     383.50000000     378.00000000