BEGIN options
  SAVE_FLOWS
END options

BEGIN dimensions
  MAXBOUND  443
END dimensions

BEGIN period  1
  4 109 115      -0.00456879
  5 109 115      -0.00456879
  4 90 122      -0.00216614
  5 90 122      -0.00216614
  4 106 102  -6.01201801E-04
  5 106 102  -6.01201801E-04
  4 106 103      -0.00901452
  5 106 103      -0.00901452
  4 88 94  -3.68340944E-04
  5 88 94  -3.68340944E-04
  4 87 99      -0.00531960
  5 87 99      -0.00531960
  4 103 101      -0.00676004
  5 103 101      -0.00676004
  4 114 102      -0.00395294
  5 114 102      -0.00395294
  4 78 117      -0.00247706
  5 78 117      -0.00247706
  4 103 65      -0.00191727
  5 103 65      -0.00191727
  4 105 65      -0.00731214
  5 105 65      -0.00731214
  4 113 74      -0.01184430
  5 113 74      -0.01184430
  4 98 82      -0.01169129
  5 98 82      -0.01169129
  4 98 79  -4.43937088E-04
  5 98 79  -4.43937088E-04
  4 100 70      -0.00380097
  5 100 70      -0.00380097
  4 103 42      -0.02148969
  5 103 42      -0.02148969
  4 108 47      -0.00181325
  5 108 47      -0.00181325
  4 103 27      -0.00176839
  5 103 27      -0.00176839
  4 72 73      -0.00443687
  5 72 73      -0.00443687
  4 99 44      -0.00203650
  5 99 44      -0.00203650
  4 97 119      -0.00419682
  5 97 119      -0.00419682
  4 77 86      -0.00839196
  5 77 86      -0.00839196
  5 140 68      -0.00856164
  4 59 100  -2.40994419E-04
  5 59 100  -2.40994419E-04
  4 113 67  -2.70484526E-04
  5 113 67  -2.70484526E-04
  4 102 51  -4.75646880E-05
  5 102 51  -4.75646880E-05
  4 99 46  -5.70776256E-05
  5 99 46  -5.70776256E-05
  4 114 48  -6.46578513E-04
  5 114 48  -6.46578513E-04
  4 121 113      -0.00474177
  5 121 113      -0.00474177
  4 137 121      -0.00617296
  5 137 121      -0.00617296
  4 129 117      -0.00225144
  5 129 117      -0.00225144
  4 134 86      -0.00139704
  5 134 86      -0.00139704
  4 114 103      -0.00332845
  5 114 103      -0.00332845
  4 122 106      -0.00144711
  5 122 106      -0.00144711
  4 123 82      -0.00310158
  5 123 82      -0.00310158
  4 118 74  -1.08923135E-05
  5 118 74  -1.08923135E-05
  4 127 68      -0.00568385
  5 127 68      -0.00568385
  4 96 121      -0.00203894
  5 96 121      -0.00203894
  4 85 127      -0.00440918
  5 85 127      -0.00440918
  4 104 118      -0.00584516
  5 104 118      -0.00584516
  4 96 119      -0.00414028
  5 96 119      -0.00414028
  4 98 125      -0.00523987
  5 98 125      -0.00523987
  4 88 123      -0.00913057
  5 88 123      -0.00913057
  4 105 127      -0.00373560
  5 105 127      -0.00373560
  4 138 118      -0.00539677
  5 138 118      -0.00539677
  4 135 112  -6.72168316E-04
  5 135 112  -6.72168316E-04
  4 121 86      -0.00203566
  5 121 86      -0.00203566
  4 136 100      -0.00394673
  5 136 100      -0.00394673
  4 129 95      -0.00364577
  5 129 95      -0.00364577
  4 132 95      -0.00366603
  5 132 95      -0.00366603
  4 134 97      -0.00414247
  5 134 97      -0.00414247
  4 135 98      -0.00454679
  5 135 98      -0.00454679
  4 127 105      -0.00219490
  5 127 105      -0.00219490
  4 123 95      -0.00542464
  5 123 95      -0.00542464
  4 132 86  -4.65182648E-04
  5 132 86  -4.65182648E-04
  4 133 102      -0.00606064
  5 133 102      -0.00606064
  4 134 88      -0.00411045
  5 134 88      -0.00411045
  4 114 73      -0.00558798
  5 114 73      -0.00558798
  5 137 75  -7.82090309E-04
  4 132 63      -0.00338505
  5 132 63      -0.00338505
  4 135 53      -0.00583528
  5 135 53      -0.00583528
  4 120 49      -0.00901787
  5 120 49      -0.00901787
  4 143 57      -0.00618341
  5 143 57      -0.00618341
  4 136 55  -5.01426941E-04
  5 136 55  -5.01426941E-04
  4 124 50      -0.00911022
  5 124 50      -0.00911022
  4 123 52  -5.31075596E-04
  5 123 52  -5.31075596E-04
  4 110 115      -0.00389672
  5 110 115      -0.00389672
  4 89 115      -0.00122899
  5 89 115      -0.00122899
  4 111 107  -4.75646880E-06
  5 111 107  -4.75646880E-06
  4 91 94  -6.81760528E-05
  5 91 94  -6.81760528E-05
  4 107 92      -0.00609123
  5 107 92      -0.00609123
  4 94 89      -0.00179344
  5 94 89      -0.00179344
  4 99 92  -1.83916794E-06
  5 99 92  -1.83916794E-06
  4 91 88      -0.00282544
  5 91 88      -0.00282544
  4 108 99  -6.69710807E-04
  5 108 99  -6.69710807E-04
  4 73 114      -0.00211065
  5 73 114      -0.00211065
  4 78 121      -0.00238779
  5 78 121      -0.00238779
  4 67 111      -0.00216572
  5 67 111      -0.00216572
  4 78 118      -0.00247647
  5 78 118      -0.00247647
  4 73 114      -0.00804910
  5 73 114      -0.00804910
  4 70 119      -0.00299753
  5 70 119      -0.00299753
  4 67 117      -0.00468644
  5 67 117      -0.00468644
  4 64 116      -0.00735303
  5 64 116      -0.00735303
  4 80 92      -0.00844280
  5 80 92      -0.00844280
  4 77 106      -0.00397465
  5 77 106      -0.00397465
  4 50 97      -0.00344059
  5 50 97      -0.00344059
  4 76 93  -1.90258752E-05
  5 76 93  -1.90258752E-05
  4 70 109      -0.00226176
  5 70 109      -0.00226176
  4 59 94  -1.08098681E-04
  5 59 94  -1.08098681E-04
  4 70 83  -7.52600203E-04
  5 70 83  -7.52600203E-04
  4 93 72      -0.00452705
  5 93 72      -0.00452705
  4 101 81      -0.00450582
  5 101 81      -0.00450582
  4 105 82  -8.72653475E-05
  5 105 82  -8.72653475E-05
  4 111 71  -5.84601725E-04
  5 111 71  -5.84601725E-04
  4 95 73      -0.00544200
  5 95 73      -0.00544200
  4 99 82  -2.13708143E-04
  5 99 82  -2.13708143E-04
  4 96 63      -0.00550688
  5 96 63      -0.00550688
  4 95 76      -0.00504167
  5 95 76      -0.00504167
  4 103 41      -0.01365327
  5 103 41      -0.01365327
  4 103 41      -0.00102435
  5 103 41      -0.00102435
  4 102 60  -2.53329528E-04
  5 102 60  -2.53329528E-04
  4 112 49  -1.90258752E-04
  5 112 49  -1.90258752E-04
  4 103 30      -0.01080787
  5 103 30      -0.01080787
  4 101 35      -0.00694687
  5 101 35      -0.00694687
  4 112 22  -8.06221461E-05
  5 112 22  -8.06221461E-05
  4 78 83      -0.00447441
  5 78 83      -0.00447441
  4 80 78      -0.00160165
  5 80 78      -0.00160165
  4 69 78  -1.66476408E-04
  5 69 78  -1.66476408E-04
  4 70 83      -0.00435344
  5 70 83      -0.00435344
  5 152 93  -3.54832572E-04
  4 140 107      -0.00854111
  5 140 107      -0.00854111
  4 124 50      -0.00986354
  5 124 50      -0.00986354
  4 82 120      -0.00192907
  5 82 120      -0.00192907
  4 87 94      -0.00135550
  5 87 94      -0.00135550
  4 91 88      -0.00282544
  5 91 88      -0.00282544
  4 65 121      -0.00426622
  5 65 121      -0.00426622
  4 67 111      -0.00556416
  5 67 111      -0.00556416
  4 68 110      -0.00264548
  5 68 110      -0.00264548
  4 67 117      -0.00221805
  5 67 117      -0.00221805
  4 68 110      -0.00255581
  5 68 110      -0.00255581
  4 71 93      -0.00128177
  5 71 93      -0.00128177
  4 70 109      -0.00320760
  5 70 109      -0.00320760
  4 65 93  -3.79534500E-04
  5 65 93  -3.79534500E-04
  4 105 40      -0.01128469
  5 105 40      -0.01128469
  4 46 129      -0.00486251
  5 46 129      -0.00486251
  4 129 86  -1.99296043E-04
  5 129 86  -1.99296043E-04
  4 132 91  -1.90258752E-04
  5 132 91  -1.90258752E-04
  4 132 91  -1.18911720E-05
  5 132 91  -1.18911720E-05
  4 118 74  -1.08447489E-04
  5 118 74  -1.08447489E-04
  4 65 101  -9.51293760E-05
  5 65 101  -9.51293760E-05
  4 141 122  -1.01471334E-04
  5 141 122  -1.01471334E-04
  4 108 32  -2.53678336E-04
  5 108 32  -2.53678336E-04
  4 91 91  -6.34195840E-05
  5 91 91  -6.34195840E-05
  4 68 77  -2.37823440E-04
  5 68 77  -2.37823440E-04
  4 108 47  -3.56735160E-05
  5 108 47  -3.56735160E-05
  4 111 48  -1.90258752E-04
  5 111 48  -1.90258752E-04
  4 148 103      -0.00423326
  5 148 103      -0.00423326
  4 82 112  -2.69533232E-04
  5 82 112  -2.69533232E-04
  4 47 98  -9.51293760E-05
  5 47 98  -9.51293760E-05
  4 106 41  -1.03056824E-05
  5 106 41  -1.03056824E-05
  4 113 37  -7.66774480E-04
  5 113 37  -7.66774480E-04
  4 117 65  -1.90258752E-04
  5 117 65  -1.90258752E-04
  4 117 44  -2.14041096E-04
  5 117 44  -2.14041096E-04
  4 106 19  -5.42285008E-04
  5 106 19  -5.42285008E-04
  4 110 34  -3.17415018E-04
  5 110 34  -3.17415018E-04
  4 103 29  -5.94558600E-05
  5 103 29  -5.94558600E-05
  4 125 75  -5.36054033E-04
  5 125 75  -5.36054033E-04
  4 113 54      -0.00380518
  5 113 54      -0.00380518
  4 52 104  -1.14155251E-04
  5 52 104  -1.14155251E-04
  4 42 106  -9.74283359E-04
  5 42 106  -9.74283359E-04
  4 111 44  -2.85388128E-04
  5 111 44  -2.85388128E-04
  4 119 66  -4.43937088E-05
  5 119 66  -4.43937088E-05
  4 71 81  -2.94774226E-04
  5 71 81  -2.94774226E-04
  4 69 76  -2.85388128E-04
  5 69 76  -2.85388128E-04
  4 64 116      -0.00375761
  5 64 116      -0.00375761
  4 89 116      -0.00147401
  5 89 116      -0.00147401
  4 139 112      -0.00141792
  5 139 112      -0.00141792
  4 139 77  -3.75602486E-05
  5 139 77  -3.75602486E-05
  4 143 57      -0.00559741
  5 143 57      -0.00559741
  4 46 129      -0.00509990
  5 46 129      -0.00509990
  5 138 76  -2.99784373E-04
  4 51 97  -7.71340690E-05
  5 51 97  -7.71340690E-05
  2 87 99      -0.01852448
  2 104 26  -7.87037037E-05
  2 109 53  -9.69748858E-04
  2 152 91      -0.00879287
  2 129 117      -0.00235661
  2 129 117      -0.00945152
  2 129 117      -0.01003656
  2 129 117      -0.00911726
  2 152 91      -0.00560458
  2 150 92      -0.00367526
  2 152 92      -0.01485769
  2 129 117      -0.00625856
  2 137 121      -0.05300685
  2 140 107      -0.00368760
  2 166 69      -0.02064181
  2 154 85      -0.00379665
  2 167 69  -6.92097920E-04
  2 171 62      -0.00790512
  2 162 77  -6.31151700E-04
  2 116 7      -0.00924978
  2 95 127  -2.45846017E-04
  2 105 40      -0.01522726
  2 101 54      -0.00893690
  2 109 42      -0.11600828
  2 103 30      -0.06838499
  2 95 127  -2.05701421E-04
  2 145 118  -2.21968544E-04
  2 102 69  -2.04845256E-04
  2 95 117      -0.00158549
  2 78 108      -0.00253678
  2 85 111  -6.65905632E-04
  2 114 72  -8.68848300E-05
  2 109 25  -4.66133942E-04
  2 110 12  -1.85660832E-04
  2 102 38  -1.80745814E-04
  2 103 23  -2.85388128E-04
  2 104 27  -3.10755961E-04
  2 101 28  -6.34195840E-04
  2 105 27  -5.07356672E-04
  2 102 25  -1.90258752E-04
  2 107 27  -4.42351598E-04
  2 105 26  -1.98503298E-04
  2 103 28  -5.67605277E-04
  2 104 29  -1.10984272E-04
  2 104 25  -2.12455606E-04
  2 146 101  -1.38381532E-04
  2 144 112  -1.26839168E-04
  2 144 106  -2.91254439E-04
  2 78 96      -0.00190259
  2 80 100  -7.61035008E-04
  2 82 100  -4.75646880E-05
  2 80 102  -6.34195840E-04
  2 76 91  -1.01471334E-04
  2 78 94  -6.34195840E-04
  2 80 99  -9.51293760E-05
  2 81 102  -1.77574835E-04
  2 74 92  -6.18340944E-04
  2 109 44  -3.80517504E-04
  2 112 43  -3.80517504E-04
  2 112 52  -3.80517504E-04
  2 105 46  -3.80517504E-04
  2 108 50  -3.80517504E-04
  2 109 50  -4.92770167E-04
  2 66 114  -1.90258752E-04
  2 67 113  -2.85388128E-04
  2 64 115  -2.66362253E-04
  2 65 110  -1.14155251E-04
  2 68 107  -1.90258752E-04
  2 70 110  -7.22983257E-04
  2 68 116  -1.26839168E-04
  2 69 115  -2.53678336E-05
  2 67 114  -6.34195840E-04
  2 52 105  -1.90258752E-04
  2 51 105  -2.37823440E-04
  2 116 50  -3.55149670E-04
  2 76 119  -1.20497210E-04
  2 76 125  -1.52207002E-04
  2 76 118  -5.83460173E-04
  2 76 120      -0.00126839
  2 76 120      -0.00126839
  2 75 120  -2.53678336E-04
  2 81 115  -9.51293760E-04
  2 82 114  -3.80517504E-04
  2 85 114  -4.56621005E-04
  2 81 116  -5.77118214E-04
  2 82 117  -3.17097920E-04
  2 113 65  -2.02942669E-04
  2 91 114  -5.07356672E-04
  2 92 112  -1.52207002E-04
  2 92 110  -5.07356672E-04
  2 92 109  -6.34195840E-04
  2 90 108  -2.66362253E-04
  2 92 107  -1.26839168E-04
  2 90 108  -1.01471334E-04
  2 91 115  -1.90258752E-04
  2 93 109  -1.01471334E-04
  2 92 114  -7.48351091E-05
  2 92 109      -0.00122400
  2 85 114  -8.62506342E-04
  2 157 91  -5.70776256E-04
  2 98 64  -1.58548960E-04
  2 87 105  -5.07356672E-04
  2 85 105  -1.58548960E-04
  2 85 103  -1.71232877E-04
  2 141 119      -0.00232024
  2 105 29  -2.85388128E-04
  2 103 29  -4.71841705E-04
  2 92 94  -2.85388128E-04
  2 97 100  -8.16812532E-04
  2 97 84  -2.85388128E-04
  2 109 51  -1.90258752E-04
  2 114 64  -9.51293760E-04
  2 90 111  -5.07356672E-04
  2 91 112  -1.90258752E-04
  2 91 112  -1.21765601E-04
  2 86 112  -7.29325216E-04
  2 104 43      -0.00406028
  2 142 114      -0.01716086
  2 116 10      -0.00532725
  2 138 110      -0.02072073
  2 107 42  -2.18797565E-04
  2 148 99      -0.01106298
  2 116 23  -5.70776256E-04
END period  1

