BEGIN options
  XORIGIN  6.64525000E+05
  YORIGIN  6.15287500E+06
END options

BEGIN dimensions
  NLAY  5
  NROW  182
  NCOL  183
END dimensions

BEGIN griddata
  delr
    INTERNAL  FACTOR  1.0
       300.00000000     300.00000000     300.00000000     300.00000000     300.00000000     300.00000000     300.00000000     300.00000000     300.00000000     300.00000000     300.00000000     300.00000000     300.00000000     300.00000000     300.00000000     300.00000000     300.00000000     300.00000000     300.00000000     300.00000000
       300.00000000     300.00000000     300.00000000     300.00000000     300.00000000     300.00000000     300.00000000     300.00000000     300.00000000     300.00000000     300.00000000     300.00000000     300.00000000     300.00000000     300.00000000     300.00000000     300.00000000     300.00000000     300.00000000     300.00000000
       300.00000000     300.00000000     300.00000000     300.00000000     300.00000000     300.00000000     300.00000000     300.00000000     300.00000000     300.00000000     300.00000000     300.00000000     300.00000000     300.00000000     300.00000000     300.00000000     300.00000000     300.00000000     300.00000000     300.00000000
       300.00000000     300.00000000     300.00000000     300.00000000     300.00000000     300.00000000     300.00000000     300.00000000     300.00000000     300.00000000     300.00000000     300.00000000     300.00000000     300.00000000     300.00000000     300.00000000     300.00000000     300.00000000     300.00000000     300.00000000
       300.00000000     300.00000000     300.00000000     300.00000000     300.00000000     300.00000000     300.00000000     300.00000000     300.00000000     300.00000000     300.00000000     300.00000000     300.00000000     300.00000000     300.00000000     300.00000000     300.00000000     300.00000000     300.00000000     300.00000000
       300.00000000     300.00000000     300.00000000     300.00000000     300.00000000     300.00000000     300.00000000     300.00000000     300.00000000     300.00000000     300.00000000     300.00000000     300.00000000     300.00000000     300.00000000     300.00000000     300.00000000     300.00000000     300.00000000     300.00000000
       300.00000000     300.00000000     300.00000000     300.00000000     300.00000000     300.00000000     300.00000000     300.00000000     300.00000000     300.00000000     300.00000000     300.00000000     300.00000000     300.00000000     450.00000000     600.00000000     600.00000000     600.00000000     600.00000000     600.00000000
       600.00000000     600.00000000     600.00000000     600.00000000     600.00000000     600.00000000     600.00000000     600.00000000     600.00000000     600.00000000     600.00000000     600.00000000     600.00000000     600.00000000     600.00000000     600.00000000     600.00000000     600.00000000     600.00000000     600.00000000
       600.00000000     600.00000000     600.00000000     600.00000000     600.00000000     600.00000000     600.00000000     600.00000000     600.00000000     600.00000000     600.00000000     600.00000000     600.00000000     600.00000000     600.00000000     600.00000000     600.00000000     600.00000000     600.00000000     600.00000000
       600.00000000     600.00000000     600.00000000
  delc
    INTERNAL  FACTOR  1.0
       300.00000000     300.00000000     300.00000000     300.00000000     300.00000000     300.00000000     300.00000000     300.00000000     300.00000000     300.00000000     300.00000000     300.00000000     300.00000000     300.00000000     300.00000000     300.00000000     300.00000000     300.00000000     300.00000000     300.00000000
       300.00000000     300.00000000     300.00000000     300.00000000     300.00000000     300.00000000     300.00000000     300.00000000     300.00000000     300.00000000     300.00000000     300.00000000     300.00000000     300.00000000     300.00000000     300.00000000     300.00000000     300.00000000     300.00000000     300.00000000
       300.00000000     300.00000000     300.00000000     300.00000000     300.00000000     300.00000000     300.00000000     300.00000000     300.00000000     300.00000000     300.00000000     300.00000000     300.00000000     300.00000000     300.00000000     300.00000000     300.00000000     300.00000000     300.00000000     300.00000000
       300.00000000     300.00000000     300.00000000     300.00000000     300.00000000     300.00000000     300.00000000     300.00000000     300.00000000     300.00000000     300.00000000     300.00000000     300.00000000     300.00000000     300.00000000     300.00000000     300.00000000     300.00000000     300.00000000     300.00000000
       300.00000000     300.00000000     300.00000000     300.00000000     300.00000000     300.00000000     300.00000000     300.00000000     300.00000000     300.00000000     300.00000000     300.00000000     300.00000000     300.00000000     300.00000000     300.00000000     300.00000000     300.00000000     300.00000000     300.00000000
       300.00000000     300.00000000     300.00000000     300.00000000     300.00000000     300.00000000     300.00000000     300.00000000     300.00000000     300.00000000     300.00000000     300.00000000     300.00000000     300.00000000     300.00000000     300.00000000     300.00000000     300.00000000     300.00000000     300.00000000
       300.00000000     300.00000000     300.00000000     300.00000000     300.00000000     300.00000000     300.00000000     300.00000000     300.00000000     300.00000000     300.00000000     300.00000000     300.00000000     300.00000000     300.00000000     300.00000000     300.00000000     300.00000000     300.00000000     300.00000000
       300.00000000     300.00000000     300.00000000     300.00000000     300.00000000     300.00000000     300.00000000     300.00000000     300.00000000     300.00000000     300.00000000     300.00000000     300.00000000     300.00000000     300.00000000     300.00000000     300.00000000     300.00000000     300.00000000     300.00000000
       300.00000000     300.00000000     300.00000000     300.00000000     300.00000000     300.00000000     300.00000000     300.00000000     300.00000000     300.00000000     300.00000000     300.00000000     300.00000000     300.00000000     300.00000000     300.00000000     300.00000000     300.00000000     300.00000000     300.00000000
       300.00000000     300.00000000
  top
    INTERNAL  FACTOR  1.0
      9999.00000000    9999.00000000    9999.00000000    9999.00000000    9999.00000000    9999.00000000    9999.00000000    9999.00000000    9999.00000000    9999.00000000    9999.00000000    9999.00000000    9999.00000000    9999.00000000    9999.00000000    9999.00000000    9999.00000000    9999.00000000    9999.00000000    9999.00000000
      9999.00000000    9999.00000000    9999.00000000    9999.00000000    9999.00000000    9999.00000000    9999.00000000    9999.00000000    9999.00000000    9999.00000000    9999.00000000    9999.00000000    9999.00000000    9999.00000000    9999.00000000    9999.00000000    9999.00000000    9999.00000000    9999.00000000    9999.00000000
      9999.00000000    9999.00000000    9999.00000000    9999.00000000    9999.00000000    9999.00000000    9999.00000000    9999.00000000    9999.00000000    9999.00000000    9999.00000000    9999.00000000    9999.00000000    9999.00000000    9999.00000000    9999.00000000    9999.00000000    9999.00000000    9999.00000000    9999.00000000
      9999.00000000    9999.00000000    9999.00000000    9999.00000000    9999.00000000    9999.00000000    9999.00000000    9999.00000000    9999.00000000    9999.00000000    9999.00000000    9999.00000000    9999.00000000    9999.00000000    9999.00000000    9999.00000000    9999.00000000    9999.00000000    9999.00000000    9999.00000000
      9999.00000000    9999.00000000    9999.00000000    9999.00000000    9999.00000000    9999.00000000    9999.00000000    9999.00000000    9999.00000000    9999.00000000    9999.00000000    9999.00000000    9999.00000000    9999.00000000    9999.00000000    9999.00000000    9999.00000000    9999.00000000    9999.00000000    9999.00000000
      9999.00000000    9999.00000000    9999.00000000    9999.00000000    9999.00000000    9999.00000000    9999.00000000    9999.00000000    9999.00000000    9999.00000000    9999.00000000    9999.00000000    9999.00000000    9999.00000000    9999.00000000    9999.00000000    9999.00000000    9999.00000000    9999.00000000    9999.00000000
      9999.00000000    9999.00000000    9999.00000000    9999.00000000    9999.00000000    9999.00000000    9999.00000000    9999.00000000    9999.00000000    9999.00000000    9999.00000000    9999.00000000    9999.00000000    9999.00000000    9999.00000000    9999.00000000    9999.00000000    9999.00000000    9999.00000000    9999.00000000
      9999.00000000    9999.00000000    9999.00000000    9999.00000000    9999.00000000    9999.00000000    9999.00000000    9999.00000000    9999.00000000    9999.00000000    9999.00000000    9999.00000000    9999.00000000    9999.00000000    9999.00000000    9999.00000000    9999.00000000    9999.00000000    9999.00000000    9999.00000000
      9999.00000000    9999.00000000    9999.00000000    9999.00000000    9999.00000000    9999.00000000    9999.00000000    9999.00000000    9999.00000000    9999.00000000    9999.00000000    9999.00000000    9999.00000000    9999.00000000    9999.00000000    9999.00000000    9999.00000000    9999.00000000    9999.00000000    9999.00000000
      9999.00000000    9999.00000000    9999.00000000
      9999.00000000    9999.00000000    9999.00000000    9999.00000000    9999.00000000    9999.00000000    9999.00000000    9999.00000000    9999.00000000    9999.00000000    9999.00000000    9999.00000000    9999.00000000    9999.00000000    9999.00000000    9999.00000000    9999.00000000    9999.00000000    9999.00000000    9999.00000000
      9999.00000000    9999.00000000    9999.00000000    9999.00000000    9999.00000000    9999.00000000    9999.00000000    9999.00000000    9999.00000000    9999.00000000    9999.00000000    9999.00000000    9999.00000000    9999.00000000    9999.00000000    9999.00000000    9999.00000000    9999.00000000    9999.00000000    9999.00000000
      9999.00000000    9999.00000000    9999.00000000    9999.00000000    9999.00000000    9999.00000000    9999.00000000    9999.00000000    9999.00000000    9999.00000000    9999.00000000    9999.00000000    9999.00000000    9999.00000000    9999.00000000    9999.00000000    9999.00000000    9999.00000000    9999.00000000    9999.00000000
      9999.00000000    9999.00000000    9999.00000000    9999.00000000    9999.00000000    9999.00000000    9999.00000000    9999.00000000    9999.00000000    9999.00000000    9999.00000000    9999.00000000    9999.00000000    9999.00000000    9999.00000000    9999.00000000    9999.00000000    9999.00000000    9999.00000000    9999.00000000
      9999.00000000    9999.00000000    9999.00000000    9999.00000000    9999.00000000    9999.00000000    9999.00000000    9999.00000000    9999.00000000    9999.00000000    9999.00000000    9999.00000000    9999.00000000    9999.00000000    9999.00000000    9999.00000000    9999.00000000    9999.00000000    9999.00000000    9999.00000000
      9999.00000000    9999.00000000    9999.00000000    9999.00000000    9999.00000000    9999.00000000    9999.00000000    9999.00000000    9999.00000000    9999.00000000    9999.00000000    9999.00000000    9999.00000000    9999.00000000    9999.00000000    9999.00000000    9999.00000000    9999.00000000    9999.00000000    9999.00000000
      9999.00000000    9999.00000000    9999.00000000    9999.00000000    9999.00000000    9999.00000000    9999.00000000    9999.00000000    9999.00000000    9999.00000000    9999.00000000    9999.00000000    9999.00000000    9999.00000000    9999.00000000    9999.00000000    9999.00000000    9999.00000000     -31.89999962     -33.79999924
       -34.59999847     -35.50000000     -36.20000076     -37.00000000     -37.79999924     -38.70000076     -39.50000000     -40.29999924     -41.40000153     -42.29999924     -43.40000153     -44.29999924     -45.70000076     -46.79999924     -48.50000000     -49.70000076     -50.70000076     -52.29999924     -53.79999924     -55.40000153
       -56.70000076     -58.50000000     -60.00000000     -62.00000000     -63.29999924     -64.80000305     -66.69999695     -68.30000305     -69.80000305     -71.50000000     -73.30000305     -74.50000000     -76.19999695     -76.90000153     -78.00000000     -78.80000305     -79.69999695     -80.59999847     -81.40000153     -82.40000153
       -83.30000305     -84.00000000     -84.69999695
      9999.00000000    9999.00000000    9999.00000000    9999.00000000    9999.00000000    9999.00000000    9999.00000000    9999.00000000    9999.00000000    9999.00000000    9999.00000000    9999.00000000    9999.00000000    9999.00000000    9999.00000000    9999.00000000    9999.00000000    9999.00000000    9999.00000000    9999.00000000
      9999.00000000    9999.00000000    9999.00000000    9999.00000000    9999.00000000    9999.00000000    9999.00000000    9999.00000000    9999.00000000    9999.00000000    9999.00000000    9999.00000000    9999.00000000    9999.00000000    9999.00000000    9999.00000000    9999.00000000    9999.00000000    9999.00000000    9999.00000000
      9999.00000000    9999.00000000    9999.00000000    9999.00000000    9999.00000000    9999.00000000    9999.00000000    9999.00000000    9999.00000000    9999.00000000    9999.00000000    9999.00000000    9999.00000000    9999.00000000    9999.00000000    9999.00000000    9999.00000000    9999.00000000    9999.00000000    9999.00000000
      9999.00000000    9999.00000000    9999.00000000    9999.00000000    9999.00000000    9999.00000000    9999.00000000    9999.00000000    9999.00000000    9999.00000000    9999.00000000    9999.00000000    9999.00000000    9999.00000000    9999.00000000    9999.00000000    9999.00000000    9999.00000000    9999.00000000    9999.00000000
      9999.00000000    9999.00000000    9999.00000000    9999.00000000    9999.00000000    9999.00000000    9999.00000000    9999.00000000    9999.00000000    9999.00000000    9999.00000000    9999.00000000    9999.00000000    9999.00000000    9999.00000000    9999.00000000    9999.00000000    9999.00000000    9999.00000000    9999.00000000
      9999.00000000    9999.00000000    9999.00000000    9999.00000000    9999.00000000    9999.00000000    9999.00000000    9999.00000000    9999.00000000    9999.00000000    9999.00000000    9999.00000000    9999.00000000    9999.00000000    9999.00000000    9999.00000000    9999.00000000    9999.00000000    9999.00000000    9999.00000000
      9999.00000000    9999.00000000    9999.00000000    9999.00000000    9999.00000000    9999.00000000    9999.00000000    9999.00000000    9999.00000000    9999.00000000    9999.00000000    9999.00000000    9999.00000000    9999.00000000    9999.00000000    9999.00000000    9999.00000000     -29.70000076     -32.00000000     -34.00000000
       -34.79999924     -35.79999924     -36.29999924     -37.20000076     -38.00000000     -39.00000000     -39.79999924     -40.50000000     -41.70000076     -42.59999847     -43.79999924     -44.59999847     -46.00000000     -47.00000000     -49.00000000     -49.79999924     -51.00000000     -52.50000000     -54.29999924     -55.90000153
       -57.09999847     -58.79999924     -60.29999924     -62.29999924     -63.70000076     -65.30000305     -67.09999847     -68.80000305     -70.19999695     -72.00000000     -73.59999847     -74.80000305     -76.30000305     -77.19999695     -78.19999695     -79.40000153     -80.19999695     -80.80000305     -81.80000305     -82.59999847
       -83.50000000     -84.30000305     -85.09999847
      9999.00000000    9999.00000000    9999.00000000    9999.00000000    9999.00000000    9999.00000000    9999.00000000    9999.00000000    9999.00000000    9999.00000000    9999.00000000    9999.00000000    9999.00000000    9999.00000000    9999.00000000    9999.00000000    9999.00000000    9999.00000000    9999.00000000    9999.00000000
      9999.00000000    9999.00000000    9999.00000000    9999.00000000    9999.00000000    9999.00000000    9999.00000000    9999.00000000    9999.00000000    9999.00000000    9999.00000000    9999.00000000    9999.00000000    9999.00000000    9999.00000000    9999.00000000    9999.00000000    9999.00000000    9999.00000000    9999.00000000
      9999.00000000    9999.00000000    9999.00000000    9999.00000000    9999.00000000    9999.00000000    9999.00000000    9999.00000000    9999.00000000    9999.00000000    9999.00000000    9999.00000000    9999.00000000    9999.00000000    9999.00000000    9999.00000000    9999.00000000    9999.00000000    9999.00000000    9999.00000000
      9999.00000000    9999.00000000    9999.00000000    9999.00000000    9999.00000000    9999.00000000    9999.00000000    9999.00000000    9999.00000000    9999.00000000    9999.00000000    9999.00000000    9999.00000000    9999.00000000    9999.00000000    9999.00000000    9999.00000000    9999.00000000    9999.00000000    9999.00000000
      9999.00000000    9999.00000000    9999.00000000    9999.00000000    9999.00000000    9999.00000000    9999.00000000    9999.00000000    9999.00000000    9999.00000000    9999.00000000    9999.00000000    9999.00000000    9999.00000000    9999.00000000    9999.00000000    9999.00000000    9999.00000000    9999.00000000    9999.00000000
      9999.00000000    9999.00000000    9999.00000000    9999.00000000    9999.00000000    9999.00000000    9999.00000000    9999.00000000    9999.00000000    9999.00000000    9999.00000000    9999.00000000    9999.00000000    9999.00000000    9999.00000000    9999.00000000    9999.00000000    9999.00000000    9999.00000000    9999.00000000
      9999.00000000    9999.00000000    9999.00000000    9999.00000000    9999.00000000    9999.00000000    9999.00000000    9999.00000000    9999.00000000    9999.00000000    9999.00000000    9999.00000000    9999.00000000    9999.00000000    9999.00000000     -17.70000076     -23.70000076     -29.50000000     -32.09999847     -34.00000000
       -35.00000000     -35.79999924     -36.50000000     -37.20000076     -38.09999847     -39.00000000     -39.90000153     -40.70000076     -41.79999924     -42.79999924     -43.90000153     -44.79999924     -45.90000153     -47.29999924     -49.29999924     -50.00000000     -51.20000076     -52.79999924     -54.50000000     -56.09999847
       -57.40000153     -59.00000000     -60.59999847     -62.59999847     -63.90000153     -65.40000153     -67.30000305     -69.09999847     -70.59999847     -72.19999695     -73.69999695     -74.90000153     -76.40000153     -77.40000153     -78.69999695     -79.59999847     -80.50000000     -81.19999695     -82.09999847     -82.80000305
       -83.80000305     -84.59999847     -85.40000153
      9999.00000000    9999.00000000    9999.00000000    9999.00000000    9999.00000000    9999.00000000    9999.00000000    9999.00000000    9999.00000000    9999.00000000    9999.00000000    9999.00000000    9999.00000000    9999.00000000    9999.00000000    9999.00000000    9999.00000000    9999.00000000    9999.00000000    9999.00000000
      9999.00000000    9999.00000000    9999.00000000    9999.00000000    9999.00000000    9999.00000000    9999.00000000    9999.00000000    9999.00000000    9999.00000000    9999.00000000    9999.00000000    9999.00000000    9999.00000000    9999.00000000    9999.00000000    9999.00000000    9999.00000000    9999.00000000    9999.00000000
      9999.00000000    9999.00000000    9999.00000000    9999.00000000    9999.00000000    9999.00000000    9999.00000000    9999.00000000    9999.00000000    9999.00000000    9999.00000000    9999.00000000    9999.00000000    9999.00000000    9999.00000000    9999.00000000    9999.00000000    9999.00000000    9999.00000000    9999.00000000
      9999.00000000    9999.00000000    9999.00000000    9999.00000000    9999.00000000    9999.00000000    9999.00000000    9999.00000000    9999.00000000    9999.00000000    9999.00000000    9999.00000000    9999.00000000    9999.00000000    9999.00000000    9999.00000000    9999.00000000    9999.00000000    9999.00000000    9999.00000000
      9999.00000000    9999.00000000    9999.00000000    9999.00000000    9999.00000000    9999.00000000    9999.00000000    9999.00000000    9999.00000000    9999.00000000    9999.00000000    9999.00000000    9999.00000000    9999.00000000    9999.00000000    9999.00000000    9999.00000000    9999.00000000    9999.00000000    9999.00000000
      9999.00000000    9999.00000000    9999.00000000    9999.00000000    9999.00000000    9999.00000000    9999.00000000    9999.00000000    9999.00000000    9999.00000000    9999.00000000    9999.00000000    9999.00000000    9999.00000000    9999.00000000    9999.00000000    9999.00000000    9999.00000000    9999.00000000    9999.00000000
      9999.00000000    9999.00000000    9999.00000000    9999.00000000    9999.00000000    9999.00000000    9999.00000000    9999.00000000    9999.00000000    9999.00000000    9999.00000000    9999.00000000    9999.00000000     -12.69999981     -13.50000000     -16.70000076     -23.70000076     -29.70000076     -32.20000076     -34.29999924
       -35.20000076     -36.00000000     -36.70000076     -37.40000153     -38.20000076     -39.09999847     -40.09999847     -40.90000153     -42.00000000     -43.00000000     -44.09999847     -45.00000000     -46.29999924     -47.50000000     -49.50000000     -50.40000153     -51.70000076     -53.29999924     -55.00000000     -56.59999847
       -57.90000153     -59.59999847     -61.20000076     -63.09999847     -64.40000153     -66.00000000     -67.80000305     -69.69999695     -71.00000000     -72.80000305     -74.19999695     -75.50000000     -76.69999695     -77.59999847     -78.90000153     -79.90000153     -80.69999695     -81.40000153     -82.40000153     -83.19999695
       -84.00000000     -84.69999695     -85.50000000
      9999.00000000    9999.00000000    9999.00000000    9999.00000000    9999.00000000    9999.00000000    9999.00000000    9999.00000000    9999.00000000    9999.00000000    9999.00000000    9999.00000000    9999.00000000    9999.00000000    9999.00000000    9999.00000000    9999.00000000    9999.00000000    9999.00000000    9999.00000000
      9999.00000000    9999.00000000    9999.00000000    9999.00000000    9999.00000000    9999.00000000    9999.00000000    9999.00000000    9999.00000000    9999.00000000    9999.00000000    9999.00000000    9999.00000000    9999.00000000    9999.00000000    9999.00000000    9999.00000000    9999.00000000    9999.00000000    9999.00000000
      9999.00000000    9999.00000000    9999.00000000    9999.00000000    9999.00000000    9999.00000000    9999.00000000    9999.00000000    9999.00000000    9999.00000000    9999.00000000    9999.00000000    9999.00000000    9999.00000000    9999.00000000    9999.00000000    9999.00000000    9999.00000000    9999.00000000    9999.00000000
      9999.00000000    9999.00000000    9999.00000000    9999.00000000    9999.00000000    9999.00000000    9999.00000000    9999.00000000    9999.00000000    9999.00000000    9999.00000000    9999.00000000    9999.00000000    9999.00000000    9999.00000000    9999.00000000    9999.00000000    9999.00000000    9999.00000000    9999.00000000
      9999.00000000    9999.00000000    9999.00000000    9999.00000000    9999.00000000    9999.00000000    9999.00000000    9999.00000000    9999.00000000    9999.00000000    9999.00000000    9999.00000000    9999.00000000    9999.00000000    9999.00000000    9999.00000000    9999.00000000    9999.00000000    9999.00000000    9999.00000000
      9999.00000000    9999.00000000    9999.00000000    9999.00000000    9999.00000000    9999.00000000    9999.00000000    9999.00000000    9999.00000000    9999.00000000    9999.00000000    9999.00000000    9999.00000000    9999.00000000    9999.00000000    9999.00000000    9999.00000000    9999.00000000    9999.00000000    9999.00000000
      9999.00000000    9999.00000000    9999.00000000    9999.00000000    9999.00000000    9999.00000000    9999.00000000    9999.00000000    9999.00000000    9999.00000000     -10.00000000      -8.80000019     -10.19999981     -10.89999962     -12.30000019     -16.89999962     -23.60000038     -29.79999924     -32.29999924     -34.50000000
       -35.29999924     -36.29999924     -36.90000153     -37.50000000     -38.40000153     -39.20000076     -40.09999847     -41.00000000     -42.00000000     -43.00000000     -44.20000076     -45.20000076     -46.29999924     -47.70000076     -49.50000000     -50.50000000     -52.00000000     -53.79999924     -55.29999924     -56.79999924
       -58.29999924     -59.90000153     -61.59999847     -63.50000000     -64.80000305     -66.69999695     -68.30000305     -69.90000153     -71.50000000     -73.00000000     -74.69999695     -75.80000305     -76.90000153     -77.90000153     -79.09999847     -80.00000000     -80.90000153     -81.69999695     -82.59999847     -83.50000000
       -84.40000153     -84.90000153     -85.69999695
      9999.00000000    9999.00000000    9999.00000000    9999.00000000    9999.00000000    9999.00000000    9999.00000000    9999.00000000    9999.00000000    9999.00000000    9999.00000000    9999.00000000    9999.00000000    9999.00000000    9999.00000000    9999.00000000    9999.00000000    9999.00000000    9999.00000000    9999.00000000
      9999.00000000    9999.00000000    9999.00000000    9999.00000000    9999.00000000    9999.00000000    9999.00000000    9999.00000000    9999.00000000    9999.00000000    9999.00000000    9999.00000000    9999.00000000    9999.00000000    9999.00000000    9999.00000000    9999.00000000    9999.00000000    9999.00000000    9999.00000000
      9999.00000000    9999.00000000    9999.00000000    9999.00000000    9999.00000000    9999.00000000    9999.00000000    9999.00000000    9999.00000000    9999.00000000    9999.00000000    9999.00000000    9999.00000000    9999.00000000    9999.00000000    9999.00000000    9999.00000000    9999.00000000    9999.00000000    9999.00000000
      9999.00000000    9999.00000000    9999.00000000    9999.00000000    9999.00000000    9999.00000000    9999.00000000    9999.00000000    9999.00000000    9999.00000000    9999.00000000    9999.00000000    9999.00000000    9999.00000000    9999.00000000    9999.00000000    9999.00000000    9999.00000000    9999.00000000    9999.00000000
      9999.00000000    9999.00000000    9999.00000000    9999.00000000    9999.00000000    9999.00000000    9999.00000000    9999.00000000    9999.00000000    9999.00000000    9999.00000000    9999.00000000    9999.00000000    9999.00000000    9999.00000000    9999.00000000    9999.00000000    9999.00000000    9999.00000000    9999.00000000
      9999.00000000    9999.00000000    9999.00000000    9999.00000000    9999.00000000    9999.00000000    9999.00000000    9999.00000000    9999.00000000    9999.00000000    9999.00000000    9999.00000000    9999.00000000    9999.00000000    9999.00000000    9999.00000000    9999.00000000    9999.00000000    9999.00000000    9999.00000000
      9999.00000000    9999.00000000    9999.00000000    9999.00000000    9999.00000000    9999.00000000    9999.00000000      -6.69999981      -7.30000019      -7.80000019      -7.09999990      -8.50000000      -8.80000019      -9.10000038     -12.80000019     -15.50000000     -23.39999962     -29.89999962     -32.40000153     -34.59999847
       -35.40000153     -36.29999924     -37.00000000     -37.70000076     -38.50000000     -39.29999924     -40.29999924     -41.00000000     -42.20000076     -43.00000000     -44.20000076     -45.20000076     -46.29999924     -47.79999924     -49.59999847     -50.70000076     -52.09999847     -54.00000000     -55.20000076     -57.00000000
       -58.40000153     -60.29999924     -62.09999847     -63.70000076     -65.00000000     -66.80000305     -68.50000000     -70.09999847     -71.69999695     -73.19999695     -74.80000305     -75.90000153     -77.00000000     -77.90000153     -79.19999695     -80.09999847     -81.00000000     -81.80000305     -82.80000305     -83.69999695
       -84.59999847     -85.09999847     -85.69999695
      9999.00000000    9999.00000000    9999.00000000    9999.00000000    9999.00000000    9999.00000000    9999.00000000    9999.00000000    9999.00000000    9999.00000000    9999.00000000    9999.00000000    9999.00000000    9999.00000000    9999.00000000    9999.00000000    9999.00000000    9999.00000000    9999.00000000    9999.00000000
      9999.00000000    9999.00000000    9999.00000000    9999.00000000    9999.00000000    9999.00000000    9999.00000000    9999.00000000    9999.00000000    9999.00000000    9999.00000000    9999.00000000    9999.00000000    9999.00000000    9999.00000000    9999.00000000    9999.00000000    9999.00000000    9999.00000000    9999.00000000
      9999.00000000    9999.00000000    9999.00000000    9999.00000000    9999.00000000    9999.00000000    9999.00000000    9999.00000000    9999.00000000    9999.00000000    9999.00000000    9999.00000000    9999.00000000    9999.00000000    9999.00000000    9999.00000000    9999.00000000    9999.00000000    9999.00000000    9999.00000000
      9999.00000000    9999.00000000    9999.00000000    9999.00000000    9999.00000000    9999.00000000    9999.00000000    9999.00000000    9999.00000000    9999.00000000    9999.00000000    9999.00000000    9999.00000000    9999.00000000    9999.00000000    9999.00000000    9999.00000000    9999.00000000    9999.00000000    9999.00000000