BEGIN options
  SAVE_FLOWS
END options

BEGIN griddata
  icelltype
    CONSTANT  0
  k  LAYERED
    INTERNAL  FACTOR  1.0
      8.00000000E-04  8.00000000E-04  8.00000000E-04  8.00000000E-04  8.00000000E-04  8.00000000E-04  8.00000000E-04  8.00000000E-04  8.00000000E-04  8.00000000E-04  8.00000000E-04  8.00000000E-04  8.00000000E-04  8.00000000E-04  8.00000000E-04  8.00000000E-04  8.00000000E-04  8.00000000E-04  8.00000000E-04  8.00000000E-04
      8.00000000E-04  8.00000000E-04  8.00000000E-04  8.00000000E-04  8.00000000E-04  8.00000000E-04  8.00000000E-04  8.00000000E-04  8.00000000E-04  8.00000000E-04  8.00000000E-04  8.00000000E-04  8.00000000E-04  8.00000000E-04  8.00000000E-04  8.00000000E-04  8.00000000E-04  8.00000000E-04  8.00000000E-04  8.00000000E-04
      8.00000000E-04  8.00000000E-04  8.00000000E-04  8.00000000E-04  8.00000000E-04  8.00000000E-04  8.00000000E-04  8.00000000E-04  8.00000000E-04  8.00000000E-04  8.00000000E-04  8.00000000E-04  8.00000000E-04  8.00000000E-04  8.00000000E-04  8.00000000E-04  8.00000000E-04  8.00000000E-04  8.00000000E-04  8.00000000E-04
      8.00000000E-04  8.00000000E-04  8.00000000E-04  8.00000000E-04  8.00000000E-04  8.00000000E-04  8.00000000E-04  8.00000000E-04  8.00000000E-04  8.00000000E-04  8.00000000E-04  8.00000000E-04  8.00000000E-04  8.00000000E-04  8.00000000E-04  8.00000000E-04  8.00000000E-04  8.00000000E-04  8.00000000E-04  8.00000000E-04
      8.00000000E-04  8.00000000E-04  8.00000000E-04  8.00000000E-04  8.00000000E-04  8.00000000E-04  8.00000000E-04  8.00000000E-04  8.00000000E-04  8.00000000E-04  8.00000000E-04  8.00000000E-04  8.00000000E-04  8.00000000E-04  8.00000000E-04  8.00000000E-04  8.00000000E-04  8.00000000E-04  8.00000000E-04  8.00000000E-04
      8.00000000E-04  8.00000000E-04  8.00000000E-04  8.00000000E-04  8.00000000E-04  8.00000000E-04  8.00000000E-04  8.00000000E-04  8.00000000E-04  8.00000000E-04  8.00000000E-04  8.00000000E-04  8.00000000E-04  8.00000000E-04  8.00000000E-04  8.00000000E-04  8.00000000E-04  8.00000000E-04  8.00000000E-04  8.00000000E-04
      8.00000000E-04  8.00000000E-04  8.00000000E-04  8.00000000E-04  8.00000000E-04  8.00000000E-04  8.00000000E-04  8.00000000E-04  8.00000000E-04  8.00000000E-04  8.00000000E-04  8.00000000E-04  8.00000000E-04  8.00000000E-04  8.00000000E-04  8.00000000E-04  8.00000000E-04  8.00000000E-04  8.00000000E-04  8.00000000E-04
      8.00000000E-04  8.00000000E-04  8.00000000E-04  8.00000000E-04  8.00000000E-04  8.00000000E-04  8.00000000E-04  8.00000000E-04  8.00000000E-04  8.00000000E-04  8.00000000E-04  8.00000000E-04  8.00000000E-04  8.00000000E-04  8.00000000E-04  8.00000000E-04  8.00000000E-04  8.00000000E-04  8.00000000E-04  8.00000000E-04
      8.00000000E-04  8.00000000E-04  8.00000000E-04  8.00000000E-04  8.00000000E-04  8.00000000E-04  8.00000000E-04  8.00000000E-04  8.00000000E-04  8.00000000E-04  8.00000000E-04  8.00000000E-04  8.00000000E-04  8.00000000E-04  8.00000000E-04  8.00000000E-04  8.00000000E-04  8.00000000E-04  8.00000000E-04  8.00000000E-04
      8.00000000E-04  8.00000000E-04  8.00000000E-04
      8.00000000E-04  8.00000000E-04  8.00000000E-04  8.00000000E-04  8.00000000E-04  8.00000000E-04  8.00000000E-04  8.00000000E-04  8.00000000E-04  8.00000000E-04  8.00000000E-04  8.00000000E-04  8.00000000E-04  8.00000000E-04  8.00000000E-04  8.00000000E-04  8.00000000E-04  8.00000000E-04  8.00000000E-04  8.00000000E-04
      8.00000000E-04  8.00000000E-04  8.00000000E-04  8.00000000E-04  8.00000000E-04  8.00000000E-04  8.00000000E-04  8.00000000E-04  8.00000000E-04  8.00000000E-04  8.00000000E-04  8.00000000E-04  8.00000000E-04  8.00000000E-04  8.00000000E-04  8.00000000E-04  8.00000000E-04  8.00000000E-04  8.00000000E-04  8.00000000E-04
      8.00000000E-04  8.00000000E-04  8.00000000E-04  8.00000000E-04  8.00000000E-04  8.00000000E-04  8.00000000E-04  8.00000000E-04  8.00000000E-04  8.00000000E-04  8.00000000E-04  8.00000000E-04  8.00000000E-04  8.00000000E-04  8.00000000E-04  8.00000000E-04  8.00000000E-04  8.00000000E-04  8.00000000E-04  8.00000000E-04
      8.00000000E-04  8.00000000E-04  8.00000000E-04  8.00000000E-04  8.00000000E-04  8.00000000E-04  8.00000000E-04  8.00000000E-04  8.00000000E-04  8.00000000E-04  8.00000000E-04  8.00000000E-04  8.00000000E-04  8.00000000E-04  8.00000000E-04  8.00000000E-04  8.00000000E-04  8.00000000E-04  8.00000000E-04  8.00000000E-04
      8.00000000E-04  8.00000000E-04  8.00000000E-04  8.00000000E-04  8.00000000E-04  8.00000000E-04  8.00000000E-04  8.00000000E-04  8.00000000E-04  8.00000000E-04  8.00000000E-04  8.00000000E-04  8.00000000E-04  8.00000000E-04  8.00000000E-04  8.00000000E-04  8.00000000E-04  8.00000000E-04  8.00000000E-04  8.00000000E-04
      8.00000000E-04  8.00000000E-04  8.00000000E-04  8.00000000E-04  8.00000000E-04  8.00000000E-04  8.00000000E-04  8.00000000E-04  8.00000000E-04  8.00000000E-04  8.00000000E-04  8.00000000E-04  8.00000000E-04  8.00000000E-04  8.00000000E-04  8.00000000E-04  8.00000000E-04  8.00000000E-04  8.00000000E-04  8.00000000E-04
      8.00000000E-04  8.00000000E-04  8.00000000E-04  8.00000000E-04  8.00000000E-04  8.00000000E-04  8.00000000E-04  8.00000000E-04  8.00000000E-04  8.00000000E-04  8.00000000E-04  8.00000000E-04  8.00000000E-04  8.00000000E-04  8.00000000E-04  8.00000000E-04  8.00000000E-04  8.00000000E-04  8.00000000E-04  8.00000000E-04
      8.00000000E-04  8.00000000E-04  8.00000000E-04  8.00000000E-04  8.00000000E-04  8.00000000E-04  8.00000000E-04  8.00000000E-04  8.00000000E-04  8.00000000E-04  8.00000000E-04  8.00000000E-04  8.00000000E-04  8.00000000E-04  8.00000000E-04  8.00000000E-04  8.00000000E-04  8.00000000E-04  8.00000000E-04  8.00000000E-04
      8.00000000E-04  8.00000000E-04  8.00000000E-04  8.00000000E-04  8.00000000E-04  8.00000000E-04  8.00000000E-04  8.00000000E-04  8.00000000E-04  8.00000000E-04  8.00000000E-04  8.00000000E-04  8.00000000E-04  8.00000000E-04  8.00000000E-04  8.00000000E-04  8.00000000E-04  8.00000000E-04  8.00000000E-04  8.00000000E-04
      8.00000000E-04  8.00000000E-04  8.00000000E-04
      8.00000000E-04  8.00000000E-04  8.00000000E-04  8.00000000E-04  8.00000000E-04  8.00000000E-04  8.00000000E-04  8.00000000E-04  8.00000000E-04  8.00000000E-04  8.00000000E-04  8.00000000E-04  8.00000000E-04  8.00000000E-04  8.00000000E-04  8.00000000E-04  8.00000000E-04  8.00000000E-04  8.00000000E-04  8.00000000E-04
      8.00000000E-04  8.00000000E-04  8.00000000E-04  8.00000000E-04  8.00000000E-04  8.00000000E-04  8.00000000E-04  8.00000000E-04  8.00000000E-04  8.00000000E-04  8.00000000E-04  8.00000000E-04  8.00000000E-04  8.00000000E-04  8.00000000E-04  8.00000000E-04  8.00000000E-04  8.00000000E-04  8.00000000E-04  8.00000000E-04
      8.00000000E-04  8.00000000E-04  8.00000000E-04  8.00000000E-04  8.00000000E-04  8.00000000E-04  8.00000000E-04  8.00000000E-04  8.00000000E-04  8.00000000E-04  8.00000000E-04  8.00000000E-04  8.00000000E-04  8.00000000E-04  8.00000000E-04  8.00000000E-04  8.00000000E-04  8.00000000E-04  8.00000000E-04  8.00000000E-04
      8.00000000E-04  8.00000000E-04  8.00000000E-04  8.00000000E-04  8.00000000E-04  8.00000000E-04  8.00000000E-04  8.00000000E-04  8.00000000E-04  8.00000000E-04  8.00000000E-04  8.00000000E-04  8.00000000E-04  8.00000000E-04  8.00000000E-04  8.00000000E-04  8.00000000E-04  8.00000000E-04  8.00000000E-04  8.00000000E-04
      8.00000000E-04  8.00000000E-04  8.00000000E-04  8.00000000E-04  8.00000000E-04  8.00000000E-04  8.00000000E-04  8.00000000E-04  8.00000000E-04  8.00000000E-04  8.00000000E-04  8.00000000E-04  8.00000000E-04  8.00000000E-04  8.00000000E-04  8.00000000E-04  8.00000000E-04  8.00000000E-04  8.00000000E-04  8.00000000E-04
      8.00000000E-04  8.00000000E-04  8.00000000E-04  8.00000000E-04  8.00000000E-04  8.00000000E-04  8.00000000E-04  8.00000000E-04  8.00000000E-04  8.00000000E-04  8.00000000E-04  8.00000000E-04  8.00000000E-04  8.00000000E-04  8.00000000E-04  8.00000000E-04  8.00000000E-04  8.00000000E-04  8.00000000E-04  8.00000000E-04
      8.00000000E-04  8.00000000E-04  8.00000000E-04  8.00000000E-04  8.00000000E-04  8.00000000E-04  8.00000000E-04  8.00000000E-04  8.00000000E-04  8.00000000E-04  8.00000000E-04  8.00000000E-04  8.00000000E-04  8.00000000E-04  8.00000000E-04  8.00000000E-04  8.00000000E-04  8.00000000E-04  8.00000000E-04  8.00000000E-04
      8.00000000E-04  8.00000000E-04  8.00000000E-04  8.00000000E-04  8.00000000E-04  8.00000000E-04  8.00000000E-04  8.00000000E-04  8.00000000E-04  8.00000000E-04  8.00000000E-04  8.00000000E-04  8.00000000E-04  8.00000000E-04  8.00000000E-04  8.00000000E-04  8.00000000E-04  8.00000000E-04  8.00000000E-04  8.00000000E-04
      8.00000000E-04  8.00000000E-04  8.00000000E-04  8.00000000E-04  8.00000000E-04  8.00000000E-04  8.00000000E-04  8.00000000E-04  8.00000000E-04  8.00000000E-04  8.00000000E-04  8.00000000E-04  8.00000000E-04  8.00000000E-04  8.00000000E-04  8.00000000E-04  8.00000000E-04  8.00000000E-04  8.00000000E-04  8.00000000E-04
      8.00000000E-04  8.00000000E-04  8.00000000E-04
      8.00000000E-04  8.00000000E-04  8.00000000E-04  8.00000000E-04  8.00000000E-04  8.00000000E-04  8.00000000E-04  8.00000000E-04  8.00000000E-04  8.00000000E-04  8.00000000E-04  8.00000000E-04  8.00000000E-04  8.00000000E-04  8.00000000E-04  8.00000000E-04  8.00000000E-04  8.00000000E-04  8.00000000E-04  8.00000000E-04
      8.00000000E-04  8.00000000E-04  8.00000000E-04  8.00000000E-04  8.00000000E-04  8.00000000E-04  8.00000000E-04  8.00000000E-04  8.00000000E-04  8.00000000E-04  8.00000000E-04  8.00000000E-04  8.00000000E-04  8.00000000E-04  8.00000000E-04  8.00000000E-04  8.00000000E-04  8.00000000E-04  8.00000000E-04  8.00000000E-04
      8.00000000E-04  8.00000000E-04  8.00000000E-04  8.00000000E-04  8.00000000E-04  8.00000000E-04  8.00000000E-04  8.00000000E-04  8.00000000E-04  8.00000000E-04  8.00000000E-04  8.00000000E-04  8.00000000E-04  8.00000000E-04  8.00000000E-04  8.00000000E-04  8.00000000E-04  8.00000000E-04  8.00000000E-04  8.00000000E-04
      8.00000000E-04  8.00000000E-04  8.00000000E-04  8.00000000E-04  8.00000000E-04  8.00000000E-04  8.00000000E-04  8.00000000E-04  8.00000000E-04  8.00000000E-04  8.00000000E-04  8.00000000E-04  8.00000000E-04  8.00000000E-04  8.00000000E-04  8.00000000E-04  8.00000000E-04  8.00000000E-04  8.00000000E-04  8.00000000E-04
      8.00000000E-04  8.00000000E-04  8.00000000E-04  8.00000000E-04  8.00000000E-04  8.00000000E-04  8.00000000E-04  8.00000000E-04  8.00000000E-04  8.00000000E-04  8.00000000E-04  8.00000000E-04  8.00000000E-04  8.00000000E-04  8.00000000E-04  8.00000000E-04  8.00000000E-04  8.00000000E-04  8.00000000E-04  8.00000000E-04
      8.00000000E-04  8.00000000E-04  8.00000000E-04  8.00000000E-04  8.00000000E-04  8.00000000E-04  8.00000000E-04  8.00000000E-04  8.00000000E-04  8.00000000E-04  8.00000000E-04  8.00000000E-04  8.00000000E-04  8.00000000E-04  8.00000000E-04  8.00000000E-04  8.00000000E-04  8.00000000E-04  8.00000000E-04  8.00000000E-04
      8.00000000E-04  8.00000000E-04  8.00000000E-04  8.00000000E-04  8.00000000E-04  8.00000000E-04  8.00000000E-04  8.00000000E-04  8.00000000E-04  8.00000000E-04  8.00000000E-04  8.00000000E-04  8.00000000E-04  8.00000000E-04  8.00000000E-04  8.00000000E-04  8.00000000E-04  8.00000000E-04  8.00000000E-04  8.00000000E-04
      8.00000000E-04  8.00000000E-04  8.00000000E-04  8.00000000E-04  8.00000000E-04  8.00000000E-04  8.00000000E-04  8.00000000E-04  8.00000000E-04  8.00000000E-04  8.00000000E-04  8.00000000E-04  8.00000000E-04  8.00000000E-04  8.00000000E-04  8.00000000E-04  8.00000000E-04  8.00000000E-04  8.00000000E-04  8.00000000E-04
      8.00000000E-04  8.00000000E-04  8.00000000E-04  8.00000000E-04  8.00000000E-04  8.00000000E-04  8.00000000E-04  8.00000000E-04  8.00000000E-04  8.00000000E-04  8.00000000E-04  8.00000000E-04  8.00000000E-04  8.00000000E-04  8.00000000E-04  8.00000000E-04  8.00000000E-04  8.00000000E-04  8.00000000E-04  8.00000000E-04
      8.00000000E-04  8.00000000E-04  8.00000000E-04
      8.00000000E-04  8.00000000E-04  8.00000000E-04  8.00000000E-04  8.00000000E-04  8.00000000E-04  8.00000000E-04  8.00000000E-04  8.00000000E-04  8.00000000E-04  8.00000000E-04  8.00000000E-04  8.00000000E-04  8.00000000E-04  8.00000000E-04  8.00000000E-04  8.00000000E-04  8.00000000E-04  8.00000000E-04  8.00000000E-04
      8.00000000E-04  8.00000000E-04  8.00000000E-04  8.00000000E-04  8.00000000E-04  8.00000000E-04  8.00000000E-04  8.00000000E-04  8.00000000E-04  8.00000000E-04  8.00000000E-04  8.00000000E-04  8.00000000E-04  8.00000000E-04  8.00000000E-04  8.00000000E-04  8.00000000E-04  8.00000000E-04  8.00000000E-04  8.00000000E-04
      8.00000000E-04  8.00000000E-04  8.00000000E-04  8.00000000E-04  8.00000000E-04  8.00000000E-04  8.00000000E-04  8.00000000E-04  8.00000000E-04  8.00000000E-04  8.00000000E-04  8.00000000E-04  8.00000000E-04  8.00000000E-04  8.00000000E-04  8.00000000E-04  8.00000000E-04  8.00000000E-04  8.00000000E-04  8.00000000E-04
      8.00000000E-04  8.00000000E-04  8.00000000E-04  8.00000000E-04  8.00000000E-04  8.00000000E-04  8.00000000E-04  8.00000000E-04  8.00000000E-04  8.00000000E-04  8.00000000E-04  8.00000000E-04  8.00000000E-04  8.00000000E-04  8.00000000E-04  8.00000000E-04  8.00000000E-04  8.00000000E-04  8.00000000E-04  8.00000000E-04
      8.00000000E-04  8.00000000E-04  8.00000000E-04  8.00000000E-04  8.00000000E-04  8.00000000E-04  8.00000000E-04  8.00000000E-04  8.00000000E-04  8.00000000E-04  8.00000000E-04  8.00000000E-04  8.00000000E-04  8.00000000E-04  8.00000000E-04  8.00000000E-04  8.00000000E-04  8.00000000E-04  8.00000000E-04  8.00000000E-04
      8.00000000E-04  8.00000000E-04  8.00000000E-04  8.00000000E-04  8.00000000E-04  8.00000000E-04  8.00000000E-04  8.00000000E-04  8.00000000E-04  8.00000000E-04  8.00000000E-04  8.00000000E-04  8.00000000E-04  8.00000000E-04  8.00000000E-04  8.00000000E-04  8.00000000E-04  8.00000000E-04  8.00000000E-04  8.00000000E-04
      8.00000000E-04  8.00000000E-04  8.00000000E-04  8.00000000E-04  8.00000000E-04  8.00000000E-04  8.00000000E-04  8.00000000E-04  8.00000000E-04  8.00000000E-04  8.00000000E-04  8.00000000E-04  8.00000000E-04  8.00000000E-04  8.00000000E-04  8.00000000E-04  8.00000000E-04  8.00000000E-04  8.00000000E-04  8.00000000E-04
      8.00000000E-04  8.00000000E-04  8.00000000E-04  8.00000000E-04  8.00000000E-04  8.00000000E-04  8.00000000E-04  8.00000000E-04  8.00000000E-04  8.00000000E-04  8.00000000E-04  8.00000000E-04  8.00000000E-04  8.00000000E-04  8.00000000E-04  8.00000000E-04  8.00000000E-04  8.00000000E-04  8.00000000E-04  8.00000000E-04
      8.00000000E-04  8.00000000E-04  8.00000000E-04  8.00000000E-04  8.00000000E-04  8.00000000E-04  8.00000000E-04  8.00000000E-04  8.00000000E-04  8.00000000E-04  8.00000000E-04  8.00000000E-04  8.00000000E-04  8.00000000E-04  8.00000000E-04  8.00000000E-04  8.00000000E-04  8.00000000E-04  8.00000000E-04  8.00000000E-04
      8.00000000E-04  8.00000000E-04  8.00000000E-04
      8.00000000E-04  8.00000000E-04  8.00000000E-04  8.00000000E-04  8.00000000E-04  8.00000000E-04  8.00000000E-04  8.00000000E-04  8.00000000E-04  8.00000000E-04  8.00000000E-04  8.00000000E-04  8.00000000E-04  8.00000000E-04  8.00000000E-04  8.00000000E-04  8.00000000E-04  8.00000000E-04  8.00000000E-04  8.00000000E-04
      8.00000000E-04  8.00000000E-04  8.00000000E-04  8.00000000E-04  8.00000000E-04  8.00000000E-04  8.00000000E-04  8.00000000E-04  8.00000000E-04  8.00000000E-04  8.00000000E-04  8.00000000E-04  8.00000000E-04  8.00000000E-04  8.00000000E-04  8.00000000E-04  8.00000000E-04  8.00000000E-04  8.00000000E-04  8.00000000E-04
      8.00000000E-04  8.00000000E-04  8.00000000E-04  8.00000000E-04  8.00000000E-04  8.00000000E-04  8.00000000E-04  8.00000000E-04  8.00000000E-04  8.00000000E-04  8.00000000E-04  8.00000000E-04  8.00000000E-04  8.00000000E-04  8.00000000E-04  8.00000000E-04  8.00000000E-04  8.00000000E-04  8.00000000E-04  8.00000000E-04
      8.00000000E-04  8.00000000E-04  8.00000000E-04  8.00000000E-04  8.00000000E-04  8.00000000E-04  8.00000000E-04  8.00000000E-04  8.00000000E-04  8.00000000E-04  8.00000000E-04  8.00000000E-04  8.00000000E-04  8.00000000E-04  8.00000000E-04  8.00000000E-04  8.00000000E-04  8.00000000E-04  8.00000000E-04  8.00000000E-04
      8.00000000E-04  8.00000000E-04  8.00000000E-04  8.00000000E-04  8.00000000E-04  8.00000000E-04  8.00000000E-04  8.00000000E-04  8.00000000E-04  8.00000000E-04  8.00000000E-04  8.00000000E-04  8.00000000E-04  8.00000000E-04  8.00000000E-04  8.00000000E-04  8.00000000E-04  8.00000000E-04  8.00000000E-04  8.00000000E-04
      8.00000000E-04  8.00000000E-04  8.00000000E-04  8.00000000E-04  8.00000000E-04  8.00000000E-04  8.00000000E-04  8.00000000E-04  8.00000000E-04  8.00000000E-04  8.00000000E-04  8.00000000E-04  8.00000000E-04  8.00000000E-04  8.00000000E-04  8.00000000E-04  8.00000000E-04  8.00000000E-04  8.00000000E-04  8.00000000E-04
      8.00000000E-04  8.00000000E-04  8.00000000E-04  8.00000000E-04  8.00000000E-04  8.00000000E-04  8.00000000E-04  8.00000000E-04  8.00000000E-04  8.00000000E-04  8.00000000E-04  8.00000000E-04  8.00000000E-04  8.00000000E-04  8.00000000E-04  8.00000000E-04  8.00000000E-04  8.00000000E-04  8.00000000E-04  8.00000000E-04
      8.00000000E-04  8.00000000E-04  8.00000000E-04  8.00000000E-04  8.00000000E-04  8.00000000E-04  8.00000000E-04  8.00000000E-04  8.00000000E-04  8.00000000E-04  8.00000000E-04  8.00000000E-04  8.00000000E-04  8.00000000E-04  8.00000000E-04  8.00000000E-04  8.00000000E-04  8.00000000E-04  8.00000000E-04  8.00000000E-04
      8.00000000E-04  8.00000000E-04  8.00000000E-04  8.00000000E-04  8.00000000E-04  8.00000000E-04  8.00000000E-04  8.00000000E-04  8.00000000E-04  8.00000000E-04  8.00000000E-04  8.00000000E-04  8.00000000E-04  8.00000000E-04  8.00000000E-04  8.00000000E-04  8.00000000E-04  8.00000000E-04  8.00000000E-04  8.00000000E-04
      8.00000000E-04  8.00000000E-04  8.00000000E-04
      8.00000000E-04  8.00000000E-04  8.00000000E-04  8.00000000E-04  8.00000000E-04  8.00000000E-04  8.00000000E-04  8.00000000E-04  8.00000000E-04  8.00000000E-04  8.00000000E-04  8.00000000E-04  8.00000000E-04  8.00000000E-04  8.00000000E-04  8.00000000E-04  8.00000000E-04  8.00000000E-04  8.00000000E-04  8.00000000E-04
      8.00000000E-04  8.00000000E-04  8.00000000E-04  8.00000000E-04  8.00000000E-04  8.00000000E-04  8.00000000E-04  8.00000000E-04  8.00000000E-04  8.00000000E-04  8.00000000E-04  8.00000000E-04  8.00000000E-04  8.00000000E-04  8.00000000E-04  8.00000000E-04  8.00000000E-04  8.00000000E-04  8.00000000E-04  8.00000000E-04
      8.00000000E-04  8.00000000E-04  8.00000000E-04  8.00000000E-04  8.00000000E-04  8.00000000E-04  8.00000000E-04  8.00000000E-04  8.00000000E-04  8.00000000E-04  8.00000000E-04  8.00000000E-04  8.00000000E-04  8.00000000E-04  8.00000000E-04  8.00000000E-04  8.00000000E-04  8.00000000E-04  8.00000000E-04  8.00000000E-04
      8.00000000E-04  8.00000000E-04  8.00000000E-04  8.00000000E-04  8.00000000E-04  8.00000000E-04  8.00000000E-04  8.00000000E-04  8.00000000E-04  8.00000000E-04  8.00000000E-04  8.00000000E-04  8.00000000E-04  8.00000000E-04  8.00000000E-04  8.00000000E-04  8.00000000E-04  8.00000000E-04  8.00000000E-04  8.00000000E-04
      8.00000000E-04  8.00000000E-04  8.00000000E-04  8.00000000E-04  8.00000000E-04  8.00000000E-04  8.00000000E-04  8.00000000E-04  8.00000000E-04  8.00000000E-04  8.00000000E-04  8.00000000E-04  8.00000000E-04  8.00000000E-04  8.00000000E-04  8.00000000E-04  8.00000000E-04  8.00000000E-04  8.00000000E-04  8.00000000E-04
      8.00000000E-04  8.00000000E-04  8.00000000E-04  8.00000000E-04  8.00000000E-04  8.00000000E-04  8.00000000E-04  8.00000000E-04  8.00000000E-04  8.00000000E-04  8.00000000E-04  8.00000000E-04  8.00000000E-04  8.00000000E-04  8.00000000E-04  8.00000000E-04  8.00000000E-04  8.00000000E-04  8.00000000E-04  8.00000000E-04
      8.00000000E-04  8.00000000E-04  8.00000000E-04  8.00000000E-04  8.00000000E-04  8.00000000E-04  8.00000000E-04  8.00000000E-04  8.00000000E-04  8.00000000E-04  8.00000000E-04  8.00000000E-04  8.00000000E-04  8.00000000E-04  8.00000000E-04  8.00000000E-04  8.00000000E-04  8.00000000E-04  8.00000000E-04  8.00000000E-04
      8.00000000E-04  8.00000000E-04  8.00000000E-04  8.00000000E-04  8.00000000E-04  8.00000000E-04  8.00000000E-04  8.00000000E-04  8.00000000E-04  8.00000000E-04  8.00000000E-04  8.00000000E-04  8.00000000E-04  8.00000000E-04  8.00000000E-04  8.00000000E-04  8.00000000E-04  8.00000000E-04  8.00000000E-04  8.00000000E-04
      8.00000000E-04  8.00000000E-04  8.00000000E-04  8.00000000E-04  8.00000000E-04  8.00000000E-04  8.00000000E-04  8.00000000E-04  8.00000000E-04  8.00000000E-04  8.00000000E-04  8.00000000E-04  8.00000000E-04  8.00000000E-04  8.00000000E-04  8.00000000E-04  8.00000000E-04  8.00000000E-04  8.00000000E-04  8.00000000E-04
      8.00000000E-04  8.00000000E-04  8.00000000E-04
      8.00000000E-04  8.00000000E-04  8.00000000E-04  8.00000000E-04  8.00000000E-04  8.00000000E-04  8.00000000E-04  8.00000000E-04  8.00000000E-04  8.00000000E-04  8.00000000E-04  8.00000000E-04  8.00000000E-04  8.00000000E-04  8.00000000E-04  8.00000000E-04  8.00000000E-04  8.00000000E-04  8.00000000E-04  8.00000000E-04
      8.00000000E-04  8.00000000E-04  8.00000000E-04  8.00000000E-04  8.00000000E-04  8.00000000E-04  8.00000000E-04  8.00000000E-04  8.00000000E-04  8.00000000E-04  8.00000000E-04  8.00000000E-04  8.00000000E-04  8.00000000E-04  8.00000000E-04  8.00000000E-04  8.00000000E-04  8.00000000E-04  8.00000000E-04  8.00000000E-04
      8.00000000E-04  8.00000000E-04  8.00000000E-04  8.00000000E-04  8.00000000E-04  8.00000000E-04  8.00000000E-04  8.00000000E-04  8.00000000E-04  8.00000000E-04  8.00000000E-04  8.00000000E-04  8.00000000E-04  8.00000000E-04  8.00000000E-04  8.00000000E-04  8.00000000E-04  8.00000000E-04  8.00000000E-04  8.00000000E-04
      8.00000000E-04  8.00000000E-04  8.00000000E-04  8.00000000E-04  8.00000000E-04  8.00000000E-04  8.00000000E-04  8.00000000E-04  8.00000000E-04  8.00000000E-04  8.00000000E-04  8.00000000E-04  8.00000000E-04  8.00000000E-04  8.00000000E-04  8.00000000E-04  8.00000000E-04  8.00000000E-04  8.00000000E-04  8.00000000E-04
      8.00000000E-04  8.00000000E-04  8.00000000E-04  8.00000000E-04  8.00000000E-04  8.00000000E-04  8.00000000E-04  8.00000000E-04  8.00000000E-04  8.00000000E-04  8.00000000E-04  8.00000000E-04  8.00000000E-04  8.00000000E-04  8.00000000E-04  8.00000000E-04  8.00000000E-04  8.00000000E-04  8.00000000E-04  8.00000000E-04
      8.00000000E-04  8.00000000E-04  8.00000000E-04  8.00000000E-04  8.00000000E-04  8.00000000E-04  8.00000000E-04  8.00000000E-04  8.00000000E-04  8.00000000E-04  8.00000000E-04  8.00000000E-04  8.00000000E-04  8.00000000E-04  8.00000000E-04  8.00000000E-04  8.00000000E-04  8.00000000E-04  8.00000000E-04  8.00000000E-04
      8.00000000E-04  8.00000000E-04  8.00000000E-04  8.00000000E-04  8.00000000E-04  8.00000000E-04  8.00000000E-04  8.00000000E-04  8.00000000E-04  8.00000000E-04  8.00000000E-04  8.00000000E-04  8.00000000E-04  8.00000000E-04  8.00000000E-04  8.00000000E-04  8.00000000E-04  8.00000000E-04  8.00000000E-04  8.00000000E-04
      8.00000000E-04  8.00000000E-04  8.00000000E-04  8.00000000E-04  8.00000000E-04  8.00000000E-04  8.00000000E-04  8.00000000E-04  8.00000000E-04  8.00000000E-04  8.00000000E-04  8.00000000E-04  8.00000000E-04  8.00000000E-04  8.00000000E-04  8.00000000E-04  8.00000000E-04  8.00000000E-04  8.00000000E-04  8.00000000E-04
      8.00000000E-04  8.00000000E-04  8.00000000E-04  8.00000000E-04  8.00000000E-04  8.00000000E-04  8.00000000E-04  8.00000000E-04  8.00000000E-04  8.00000000E-04  8.00000000E-04  8.00000000E-04  8.00000000E-04  8.00000000E-04  8.00000000E-04  8.00000000E-04  8.00000000E-04  8.00000000E-04  8.00000000E-04  8.00000000E-04
      8.00000000E-04  8.00000000E-04  8.00000000E-04
      8.00000000E-04  8.00000000E-04  8.00000000E-04  8.00000000E-04  8.00000000E-04  8.00000000E-04  8.00000000E-04  8.00000000E-04  8.00000000E-04  8.00000000E-04  8.00000000E-04  8.00000000E-04  8.00000000E-04  8.00000000E-04  8.00000000E-04  8.00000000E-04  8.00000000E-04  8.00000000E-04  8.00000000E-04  8.00000000E-04
      8.00000000E-04  8.00000000E-04  8.00000000E-04  8.00000000E-04  8.00000000E-04  8.00000000E-04  8.00000000E-04  8.00000000E-04  8.00000000E-04  8.00000000E-04  8.00000000E-04  8.00000000E-04  8.00000000E-04  8.00000000E-04  8.00000000E-04  8.00000000E-04  8.00000000E-04  8.00000000E-04  8.00000000E-04  8.00000000E-04
      8.00000000E-04  8.00000000E-04  8.00000000E-04  8.00000000E-04  8.00000000E-04  8.00000000E-04  8.00000000E-04  8.00000000E-04  8.00000000E-04  8.00000000E-04  8.00000000E-04  8.00000000E-04  8.00000000E-04  8.00000000E-04  8.00000000E-04  8.00000000E-04  8.00000000E-04  8.00000000E-04  8.00000000E-04  8.00000000E-04
      8.00000000E-04  8.00000000E-04  8.00000000E-04  8.00000000E-04  8.00000000E-04  8.00000000E-04  8.00000000E-04  8.00000000E-04  8.00000000E-04  8.00000000E-04  8.00000000E-04  8.00000000E-04  8.00000000E-04  8.00000000E-04  8.00000000E-04  8.00000000E-04  8.00000000E-04  8.00000000E-04  8.00000000E-04  8.00000000E-04
      8.00000000E-04  8.00000000E-04  8.00000000E-04  8.00000000E-04  8.00000000E-04  8.00000000E-04  8.00000000E-04  8.00000000E-04  8.00000000E-04  8.00000000E-04  8.00000000E-04  8.00000000E-04  8.00000000E-04  8.00000000E-04  8.00000000E-04  8.00000000E-04  8.00000000E-04  8.00000000E-04  8.00000000E-04  8.00000000E-04
      8.00000000E-04  8.00000000E-04  8.00000000E-04  8.00000000E-04  8.00000000E-04  8.00000000E-04  8.00000000E-04  8.00000000E-04  8.00000000E-04  8.00000000E-04  8.00000000E-04  8.00000000E-04  8.00000000E-04  8.00000000E-04  8.00000000E-04  8.00000000E-04  8.00000000E-04  8.00000000E-04  8.00000000E-04  8.00000000E-04
      8.00000000E-04  8.00000000E-04  8.00000000E-04  8.00000000E-04  8.00000000E-04  8.00000000E-04  8.00000000E-04  8.00000000E-04  8.00000000E-04  8.00000000E-04  8.00000000E-04  8.00000000E-04  8.00000000E-04  8.00000000E-04  8.00000000E-04  8.00000000E-04  8.00000000E-04  8.00000000E-04  8.00000000E-04  8.00000000E-04
      8.00000000E-04  8.00000000E-04  8.00000000E-04  8.00000000E-04  8.00000000E-04  8.00000000E-04  8.00000000E-04  8.00000000E-04  8.00000000E-04  8.00000000E-04  8.00000000E-04  8.00000000E-04  8.00000000E-04  8.00000000E-04  8.00000000E-04  8.00000000E-04  8.00000000E-04  8.00000000E-04  8.00000000E-04  8.00000000E-04
      8.00000000E-04  8.00000000E-04  8.00000000E-04  8.00000000E-04  8.00000000E-04  8.00000000E-04  8.00000000E-04  8.00000000E-04  8.00000000E-04  8.00000000E-04  8.00000000E-04  8.00000000E-04  8.00000000E-04  8.00000000E-04  8.00000000E-04  8.00000000E-04  8.00000000E-04  8.00000000E-04  8.00000000E-04  8.00000000E-04
      8.00000000E-04  8.00000000E-04  8.00000000E-04
      8.00000000E-04  8.00000000E-04  8.00000000E-04  8.00000000E-04  8.00000000E-04  8.00000000E-04  8.00000000E-04  8.00000000E-04  8.00000000E-04  8.00000000E-04  8.00000000E-04  8.00000000E-04  8.00000000E-04  8.00000000E-04  8.00000000E-04  8.00000000E-04  8.00000000E-04  8.00000000E-04  8.00000000E-04  8.00000000E-04
      8.00000000E-04  8.00000000E-04  8.00000000E-04  8.00000000E-04  8.00000000E-04  8.00000000E-04  8.00000000E-04  8.00000000E-04  8.00000000E-04  8.00000000E-04  8.00000000E-04  8.00000000E-04  8.00000000E-04  8.00000000E-04  8.00000000E-04  8.00000000E-04  8.00000000E-04  8.00000000E-04  8.00000000E-04  8.00000000E-04
      8.00000000E-04  8.00000000E-04  8.00000000E-04  8.00000000E-04  8.00000000E-04  8.00000000E-04  8.00000000E-04  8.00000000E-04  8.00000000E-04  8.00000000E-04  8.00000000E-04  8.00000000E-04  8.00000000E-04  8.00000000E-04  8.00000000E-04  8.00000000E-04  8.00000000E-04  8.00000000E-04  8.00000000E-04  8.00000000E-04
      8.00000000E-04  8.00000000E-04  8.00000000E-04  8.00000000E-04  8.00000000E-04  8.00000000E-04  8.00000000E-04  8.00000000E-04  8.00000000E-04  8.00000000E-04  8.00000000E-04  8.00000000E-04  8.00000000E-04  8.00000000E-04  8.00000000E-04  8.00000000E-04  8.00000000E-04  8.00000000E-04  8.00000000E-04  8.00000000E-04
      8.00000000E-04  8.00000000E-04  8.00000000E-04  8.00000000E-04  8.00000000E-04  8.00000000E-04  8.00000000E-04  8.00000000E-04  8.00000000E-04  8.00000000E-04  8.00000000E-04  8.00000000E-04  8.00000000E-04  8.00000000E-04  8.00000000E-04  8.00000000E-04  8.00000000E-04  8.00000000E-04  8.00000000E-04  8.00000000E-04
      8.00000000E-04  8.00000000E-04  8.00000000E-04  8.00000000E-04  8.00000000E-04  8.00000000E-04  8.00000000E-04  8.00000000E-04  8.00000000E-04  8.00000000E-04  8.00000000E-04  8.00000000E-04  8.00000000E-04  8.00000000E-04  8.00000000E-04  8.00000000E-04  8.00000000E-04  8.00000000E-04  8.00000000E-04  8.00000000E-04
      8.00000000E-04  8.00000000E-04  8.00000000E-04  8.00000000E-04  8.00000000E-04  8.00000000E-04  8.00000000E-04  8.00000000E-04  8.00000000E-04  8.00000000E-04  8.00000000E-04  8.00000000E-04  8.00000000E-04  8.00000000E-04  8.00000000E-04  8.00000000E-04  8.00000000E-04  8.00000000E-04  8.00000000E-04  8.00000000E-04
      8.00000000E-04  8.00000000E-04  8.00000000E-04  8.00000000E-04  8.00000000E-04  8.00000000E-04  8.00000000E-04  8.00000000E-04  8.00000000E-04  8.00000000E-04  8.00000000E-04  8.00000000E-04  8.00000000E-04  8.00000000E-04  8.00000000E-04  8.00000000E-04  8.00000000E-04  8.00000000E-04  8.00000000E-04  8.00000000E-04
      8.00000000E-04  8.00000000E-04  8.00000000E-04  8.00000000E-04  8.00000000E-04  8.00000000E-04  8.00000000E-04  8.00000000E-04  8.00000000E-04  8.00000000E-04  8.00000000E-04  8.00000000E-04  8.00000000E-04  8.00000000E-04  8.00000000E-04  8.00000000E-04  8.00000000E-04  8.00000000E-04  8.00000000E-04  8.00000000E-04
      8.00000000E-04  8.00000000E-04  8.00000000E-04