BEGIN options
  SAVE_FLOWS
END options

BEGIN dimensions
  MAXBOUND  267
END dimensions

BEGIN period  1
  4 103 43      -0.02136885
  5 103 43      -0.02136885
  4 103 41      -0.01438402
  5 103 41      -0.01438402
  4 113 74      -0.00976617
  5 113 74      -0.00976617
  4 98 82      -0.01032127
  5 98 82      -0.01032127
  4 105 40      -0.01192409
  5 105 40      -0.01192409
  4 103 30      -0.01064607
  5 103 30      -0.01064607
  4 124 51      -0.01042431
  5 124 51      -0.01042431
  4 88 124      -0.00781305
  5 88 124      -0.00781305
  4 120 49      -0.01014201
  5 120 49      -0.01014201
  4 106 103      -0.00915045
  5 106 103      -0.00915045
  4 140 107      -0.00339282
  5 140 107      -0.00339282
  4 80 92      -0.00685279
  5 80 92      -0.00685279
  4 77 86      -0.00720115
  5 77 86      -0.00720115
  4 64 116      -0.00968163
  5 64 116      -0.00968163
  4 105 66      -0.00650961
  5 105 66      -0.00650961
  4 101 35      -0.00756716
  5 101 35      -0.00756716
  4 103 101      -0.00593106
  5 103 101      -0.00593106
  4 137 121      -0.00535461
  5 137 121      -0.00535461
  4 107 92      -0.00500650
  5 107 92      -0.00500650
  4 133 102      -0.00629439
  5 133 102      -0.00629439
  4 104 118      -0.00696992
  5 104 118      -0.00696992
  4 135 53      -0.00614417
  5 135 53      -0.00614417
  4 127 69      -0.00508341
  5 127 69      -0.00508341
  4 143 57      -0.00598032
  5 143 57      -0.00598032
  4 114 73      -0.00461325
  5 114 73      -0.00461325
  4 67 111      -0.00439720
  5 67 111      -0.00439720
  4 96 63      -0.00337112
  5 96 63      -0.00337112
  4 95 73      -0.00659627
  5 95 73      -0.00659627
  4 123 95      -0.00533489
  5 123 95      -0.00533489
  4 138 118      -0.00524543
  5 138 118      -0.00524543
  4 87 99      -0.00569406
  5 87 99      -0.00569406
  4 98 125      -0.00508768
  5 98 125      -0.00508768
  4 46 129      -0.00515218
  5 46 129      -0.00515218
  4 95 76      -0.00522826
  5 95 76      -0.00522826
  4 46 129      -0.00493541
  5 46 129      -0.00493541
  4 122 113      -0.00444844
  5 122 113      -0.00444844
  4 67 117      -0.00297187
  5 67 117      -0.00297187
  4 109 115      -0.00416147
  5 109 115      -0.00416147
  4 135 98      -0.00439396
  5 135 98      -0.00439396
  4 93 72      -0.00633405
  5 93 72      -0.00633405
  4 101 81      -0.01326306
  5 101 81      -0.01326306
  4 78 83      -0.00390419
  5 78 83      -0.00390419
  4 72 73      -0.00417680
  5 72 73      -0.00417680
  4 85 127      -0.00513794
  5 85 127      -0.00513794
  4 70 83      -0.00341400
  5 70 83      -0.00341400
  4 66 121      -0.00456130
  5 66 121      -0.00456130
  4 97 120      -0.00346366
  5 97 120      -0.00346366
  4 134 97      -0.00162644
  5 134 97      -0.00162644
  4 96 119      -0.00362421
  5 96 119      -0.00362421
  4 134 88      -0.00411182
  5 134 88      -0.00411182
  4 114 102      -0.00642039
  5 114 102      -0.00642039
  4 136 100      -0.00574472
  5 136 100      -0.00574472
  4 110 116      -0.00337256
  5 110 116      -0.00337256
  4 100 70      -0.00426581
  5 100 70      -0.00426581
  4 64 116      -0.00348681
  5 64 116      -0.00348681
  4 105 127      -0.00270951
  5 105 127      -0.00270951
  4 132 95      -0.00508888
  5 132 95      -0.00508888
  4 129 95      -0.00400044
  5 129 95      -0.00400044
  4 50 97      -0.00355273
  5 50 97      -0.00355273
  4 132 63      -0.00326118
  5 132 63      -0.00326118
  4 114 103  -9.14478691E-04
  5 114 103  -9.14478691E-04
  4 70 109      -0.00211695
  5 70 109      -0.00211695
  4 123 82      -0.00286982
  5 123 82      -0.00286982
  4 70 119      -0.00322076
  5 70 119      -0.00322076
  4 91 88      -0.00283530
  5 91 88      -0.00283530
  4 68 110      -0.00261652
  5 68 110      -0.00261652
  4 78 118      -0.00193331
  5 78 118      -0.00193331
  4 78 118      -0.00196885
  5 78 118      -0.00196885
  4 78 121      -0.00268084
  5 78 121      -0.00268084
  4 71 109      -0.00222252
  5 71 109      -0.00222252
  4 130 117      -0.00278785
  5 130 117      -0.00278785
  4 68 118      -0.00238114
  5 68 118      -0.00238114
  4 127 105      -0.00213093
  5 127 105      -0.00213093
  4 90 122      -0.00284610
  5 90 122      -0.00284610
  4 67 111      -0.00213558
  5 67 111      -0.00213558
  4 73 115      -0.00187139
  5 73 115      -0.00187139
  4 96 121      -0.00272387
  5 96 121      -0.00272387
  4 99 44      -0.00190934
  5 99 44      -0.00190934
  4 121 86      -0.00204601
  5 121 86      -0.00204601
  4 103 65      -0.00265382
  5 103 65      -0.00265382
  4 108 47      -0.00188359
  5 108 47      -0.00188359
  4 94 89      -0.00486168
  5 94 89      -0.00486168
  4 103 27      -0.00194410
  5 103 27      -0.00194410
  4 80 78      -0.00178309
  5 80 78      -0.00178309
  4 89 116      -0.00109358
  5 89 116      -0.00109358
  4 122 106      -0.00157476
  5 122 106      -0.00157476
  4 139 112      -0.00382393
  5 139 112      -0.00382393
  4 134 86      -0.00125430
  5 134 86      -0.00125430
  4 87 94      -0.00233763
  5 87 94      -0.00233763
  4 72 93      -0.00411466
  5 72 93      -0.00411466
  4 89 115      -0.00119254
  5 89 115      -0.00119254
  4 103 41      -0.00250076
  5 103 41      -0.00250076
  4 136 55  -4.75742009E-04
  5 136 55  -4.75742009E-04
  4 88 94  -7.74701928E-04
  5 88 94  -7.74701928E-04
  4 102 60      -0.00209587
  5 102 60      -0.00209587
  4 118 74  -3.42354769E-04
  5 118 74  -3.42354769E-04
  4 99 92  -1.34290969E-04
  5 99 92  -1.34290969E-04
  4 77 106      -0.00395990
  5 77 106      -0.00395990
  4 145 101  -7.17069381E-04
  5 145 101  -7.17069381E-04
  4 106 102  -6.79968924E-04
  5 106 102  -6.79968924E-04
  4 123 52  -5.64085490E-04
  5 123 52  -5.64085490E-04
  4 105 82  -1.39174277E-04
  5 105 82  -1.39174277E-04
  4 154 97      -0.00128553
  5 154 97      -0.00128553
  4 65 93  -4.84176814E-04
  5 65 93  -4.84176814E-04
  4 59 100  -2.11187215E-04
  5 59 100  -2.11187215E-04
  2 109 42      -0.21042995
  2 103 30      -0.05638198
  2 137 121      -0.04223805
  2 138 110      -0.01836625
  2 166 69      -0.02143487
  2 87 99      -0.02002724
  2 142 114      -0.01823234
  2 105 40      -0.01264063
  2 152 92      -0.00891096
  2 149 99      -0.00932950
  2 129 117      -0.01221962
  2 129 117      -0.01104430
  2 116 7      -0.00959887
  2 129 117      -0.00823208
  2 101 55      -0.00998852
  2 152 91      -0.00708590
  2 129 117      -0.00893211
  2 152 91      -0.00644752
  2 104 43      -0.00341267
  2 155 85      -0.00356830
  2 140 107      -0.00889206
  2 150 92      -0.00295529
  2 129 117      -0.00281732
  2 104 26  -8.68848300E-05
  2 114 13      -0.01680048
  2 111 14  -1.94317605E-04
  2 171 62      -0.00770294
  2 95 127  -1.87753678E-04
  2 95 127  -1.87753678E-04
  2 161 85      -0.00158089
  5 161 85      -0.00158089
  2 116 7  -3.30268053E-04
  4 116 7  -3.30268053E-04
  5 116 7  -3.30268053E-04
  4 134 113  -4.11767504E-04
  5 134 113  -4.11767504E-04
  2 92 100  -8.10713682E-05
  4 92 100  -8.10713682E-05
  5 92 100  -8.10713682E-05
  2 105 82  -1.05593607E-05
  4 105 82  -1.05593607E-05
  5 105 82  -1.05593607E-05
  2 145 122  -7.39895146E-04
  4 145 122  -7.39895146E-04
  5 145 122  -7.39895146E-04
  2 155 122  -8.60392356E-05
  4 155 122  -8.60392356E-05
  5 155 122  -8.60392356E-05
  2 141 123  -7.92744800E-05
  4 141 123  -7.92744800E-05
  5 141 123  -7.92744800E-05
  2 69 81  -3.05048199E-05
  4 69 81  -3.05048199E-05
  5 69 81  -3.05048199E-05
  2 120 53  -3.59377642E-06
  4 120 53  -3.59377642E-06
  5 120 53  -3.59377642E-06
END period  1

