BEGIN options
  SAVE_FLOWS
END options

BEGIN griddata
  icelltype
    CONSTANT  0
  k  LAYERED
    CONSTANT  7.62347762E-04
    CONSTANT  2.50000000E-09
    CONSTANT  2.30414469E-05
    CONSTANT  2.81483992E-05
END griddata

