BEGIN options
  SAVE_FLOWS
END options

BEGIN dimensions
  MAXBOUND  291
END dimensions

BEGIN period  1
  4 46 129      -0.00560989
  5 46 129      -0.00560989
  4 46 129      -0.00534876
  5 46 129      -0.00534876
  4 122 113      -0.00521595
  5 122 113      -0.00521595
  4 134 88      -0.00452149
  5 134 88      -0.00452149
  4 134 86      -0.00153674
  5 134 86      -0.00153674
  4 100 70      -0.00418107
  5 100 70      -0.00418107
  4 87 99      -0.00585156
  5 87 99      -0.00585156
  4 106 103      -0.00991598
  5 106 103      -0.00991598
  4 103 101      -0.00743604
  5 103 101      -0.00743604
  4 97 120      -0.00461650
  5 97 120      -0.00461650
  4 96 121      -0.00224283
  5 96 121      -0.00224283
  4 105 127      -0.00410916
  5 105 127      -0.00410916
  4 98 125      -0.00576386
  5 98 125      -0.00576386
  4 104 118      -0.00642968
  5 104 118      -0.00642968
  4 96 119      -0.00455431
  5 96 119      -0.00455431
  4 118 74  -1.19815449E-05
  5 118 74  -1.19815449E-05
  4 114 73      -0.00614678
  5 114 73      -0.00614678
  4 99 44      -0.00224015
  5 99 44      -0.00224015
  4 127 105      -0.00241439
  5 127 105      -0.00241439
  4 139 112      -0.00155971
  5 139 112      -0.00155971
  4 140 107      -0.00939522
  5 140 107      -0.00939522
  4 136 100      -0.00434140
  5 136 100      -0.00434140
  4 72 73      -0.00488055
  5 72 73      -0.00488055
  4 143 57      -0.00615715
  5 143 57      -0.00615715
  4 138 118      -0.00593645
  5 138 118      -0.00593645
  4 137 121      -0.00679026
  5 137 121      -0.00679026
  4 101 35      -0.00764156
  5 101 35      -0.00764156
  4 103 30      -0.01188866
  5 103 30      -0.01188866
  4 133 102      -0.00666671
  5 133 102      -0.00666671
  4 135 98      -0.00500147
  5 135 98      -0.00500147
  4 134 97      -0.00455672
  5 134 97      -0.00455672
  4 132 95      -0.00403264
  5 132 95      -0.00403264
  4 129 95      -0.00401035
  5 129 95      -0.00401035
  4 103 27      -0.00194523
  5 103 27      -0.00194523
  4 101 81      -0.00495640
  5 101 81      -0.00495640
  4 99 92  -2.02308473E-06
  5 99 92  -2.02308473E-06
  4 94 89      -0.00197279
  5 94 89      -0.00197279
  4 107 92      -0.00670035
  5 107 92      -0.00670035
  4 91 88      -0.00310798
  5 91 88      -0.00310798
  4 80 78      -0.00176181
  5 80 78      -0.00176181
  4 102 60  -2.78662481E-04
  5 102 60  -2.78662481E-04
  4 96 63      -0.00605757
  5 96 63      -0.00605757
  4 101 55      -0.00491529
  5 101 55      -0.00491529
  4 88 94  -4.05175038E-04
  5 88 94  -4.05175038E-04
  4 87 94      -0.00149105
  5 87 94      -0.00149105
  4 80 92      -0.00928708
  5 80 92      -0.00928708
  4 123 82      -0.00341174
  5 123 82      -0.00341174
  4 121 86      -0.00223922
  5 121 86      -0.00223922
  4 127 69      -0.00625224
  5 127 69      -0.00625224
  4 77 86      -0.00923116
  5 77 86      -0.00923116
  4 70 83      -0.00478878
  5 70 83      -0.00478878
  4 78 83      -0.00492185
  5 78 83      -0.00492185
  4 72 93      -0.00140995
  5 72 93      -0.00140995
  4 130 117      -0.00247659
  5 130 117      -0.00247659
  4 95 73      -0.00598620
  5 95 73      -0.00598620
  4 95 76      -0.00554583
  5 95 76      -0.00554583
  4 98 82      -0.01286042
  5 98 82      -0.01286042
  4 93 72      -0.00497975
  5 93 72      -0.00497975
  4 103 41      -0.00112679
  5 103 41      -0.00112679
  4 103 41      -0.01501860
  5 103 41      -0.01501860
  4 105 40      -0.01241316
  5 105 40      -0.01241316
  4 103 43      -0.02363866
  5 103 43      -0.02363866
  4 108 47      -0.00199457
  5 108 47      -0.00199457
  4 68 110      -0.00291003
  5 68 110      -0.00291003
  4 67 111      -0.00238229
  5 67 111      -0.00238229
  4 64 116      -0.00808833
  5 64 116      -0.00808833
  4 64 116      -0.00413337
  5 64 116      -0.00413337
  4 71 109      -0.00248794
  5 71 109      -0.00248794
  4 67 111      -0.00612058
  5 67 111      -0.00612058
  4 70 109      -0.00352836
  5 70 109      -0.00352836
  4 73 114      -0.00885401
  5 73 114      -0.00885401
  4 73 115      -0.00232172
  5 73 115      -0.00232172
  4 67 117      -0.00515508
  5 67 117      -0.00515508
  4 70 119      -0.00329728
  5 70 119      -0.00329728
  4 66 121      -0.00469284
  5 66 121      -0.00469284
  4 68 118      -0.00243986
  5 68 118      -0.00243986
  4 90 122      -0.00238276
  5 90 122      -0.00238276
  4 88 124      -0.01004362
  5 88 124      -0.01004362
  4 85 127      -0.00485010
  5 85 127      -0.00485010
  4 110 116      -0.00428639
  5 110 116      -0.00428639
  4 109 115      -0.00502567
  5 109 115      -0.00502567
  4 114 103      -0.00366130
  5 114 103      -0.00366130
  4 114 102      -0.00434824
  5 114 102      -0.00434824
  4 50 97      -0.00378465
  5 50 97      -0.00378465
  4 51 97  -8.48474759E-05
  5 51 97  -8.48474759E-05
  4 105 66      -0.00804335
  5 105 66      -0.00804335
  4 136 55  -5.51569635E-04
  5 136 55  -5.51569635E-04
  4 135 53      -0.00641881
  5 135 53      -0.00641881
  4 122 106      -0.00159182
  5 122 106      -0.00159182
  4 120 49      -0.00557827
  5 120 49      -0.00557827
  4 124 51      -0.01084989
  5 124 51      -0.01084989
  4 78 118      -0.00272476
  5 78 118      -0.00272476
  4 78 121      -0.00262657
  5 78 121      -0.00262657
  4 78 118      -0.00272412
  5 78 118      -0.00272412
  4 113 74      -0.01302874
  5 113 74      -0.01302874
  4 132 63      -0.00372356
  5 132 63      -0.00372356
  4 89 115      -0.00135189
  5 89 115      -0.00135189
  4 89 116      -0.00162142
  5 89 116      -0.00162142
  4 123 95      -0.00596711
  5 123 95      -0.00596711
  4 103 65      -0.00210900
  5 103 65      -0.00210900
  4 132 86  -5.11700913E-04
  5 132 86  -5.11700913E-04
  4 106 102  -6.61321981E-04
  5 106 102  -6.61321981E-04
  4 59 94  -1.18908549E-04
  5 59 94  -1.18908549E-04
  4 123 52  -5.84183156E-04
  5 123 52  -5.84183156E-04
  4 111 72  -6.43061898E-04
  5 111 72  -6.43061898E-04
  4 105 82  -9.59918823E-05
  5 105 82  -9.59918823E-05
  4 70 84  -8.27860223E-04
  5 70 84  -8.27860223E-04
  4 82 120      -0.00212197
  5 82 120      -0.00212197
  4 135 112  -7.39385147E-04
  5 135 112  -7.39385147E-04
  4 65 93  -4.17487950E-04
  5 65 93  -4.17487950E-04
  5 152 93  -3.90315830E-04
  4 99 82  -2.35078957E-04
  5 99 82  -2.35078957E-04
  4 59 100  -2.65093861E-04
  5 59 100  -2.65093861E-04
  2 142 114      -0.01887695
  2 155 85      -0.00417631
  2 87 99      -0.02037693
  2 116 7      -0.01017476
  2 166 69      -0.02270599
  2 152 91      -0.00616504
  2 150 92      -0.00404279
  2 152 91      -0.00967216
  2 152 92      -0.01634346
  2 140 107      -0.00405635
  2 138 110      -0.02279281
  2 137 121      -0.05830753
  2 103 30      -0.07522349
  2 104 26  -8.65740741E-05
  2 129 117      -0.01002899
  2 129 117      -0.00259227
  2 129 117      -0.00688442
  2 129 117      -0.01039667
  2 129 117      -0.01104022
  2 109 42      -0.12760910
  2 104 43      -0.00446631
  2 105 40      -0.01674999
  2 149 99      -0.01216927
  2 120 49      -0.00868277
  2 171 62      -0.00869564
  2 95 127  -2.70430619E-04
  2 95 127  -2.26271563E-04
  2 161 85      -0.00193158
  5 161 85      -0.00193158
  2 94 105  -3.89827499E-04
  4 94 105  -3.89827499E-04
  5 94 105  -3.89827499E-04
  2 92 100  -5.79253340E-05
  4 92 100  -5.79253340E-05
  5 92 100  -5.79253340E-05
  2 116 7  -3.76363521E-04
  4 116 7  -3.76363521E-04
  5 116 7  -3.76363521E-04
  2 160 75  -2.15458524E-04
  5 160 75  -2.15458524E-04
  4 134 113  -3.57318620E-04
  5 134 113  -3.57318620E-04
  2 100 25  -5.12165990E-05
  4 100 25  -5.12165990E-05
  5 100 25  -5.12165990E-05
  2 87 93  -5.42628530E-05
  4 87 93  -5.42628530E-05
  5 87 93  -5.42628530E-05
  2 105 82  -2.21376628E-05
  4 105 82  -2.21376628E-05
  5 105 82  -2.21376628E-05
  2 90 122  -1.41174108E-04
  4 90 122  -1.41174108E-04
  5 90 122  -1.41174108E-04
  2 145 122  -1.30221546E-04
  4 145 122  -1.30221546E-04
  5 145 122  -1.30221546E-04
  2 155 122  -1.07967614E-04
  4 155 122  -1.07967614E-04
  5 155 122  -1.07967614E-04
  2 141 123  -2.55792322E-05
  4 141 123  -2.55792322E-05
  5 141 123  -2.55792322E-05
  2 69 81  -2.04285050E-05
  4 69 81  -2.04285050E-05
  5 69 81  -2.04285050E-05
END period  1

