BEGIN options
  SAVE_FLOWS
END options

BEGIN dimensions
  MAXBOUND  18595
END dimensions

BEGIN period  1
  2 2 139  6.26729407E-09
  2 2 140  6.26729407E-09
  2 2 141  6.26729407E-09
  2 2 142  6.26729407E-09
  2 2 143  6.26729407E-09
  2 2 144  6.26729407E-09
  2 2 145  6.26729407E-09
  2 2 146  6.26729407E-09
  2 2 147  6.26729407E-09
  2 2 148  6.26729407E-09
  2 2 149  6.26729407E-09
  2 2 150  6.26729407E-09
  2 2 151  6.26729407E-09
  2 2 152  6.26729407E-09
  2 2 153  6.26729407E-09
  2 2 154  6.26729407E-09
  2 2 155  6.26729407E-09
  2 2 156  6.26729407E-09
  2 2 157  6.26729407E-09
  2 2 158  6.26729407E-09
  2 2 159  6.26729407E-09
  2 2 160  6.26729407E-09
  2 2 161  6.26729407E-09
  2 2 162  6.26729407E-09
  2 2 163  6.26729407E-09
  2 2 164  6.26729407E-09
  2 2 165  6.26729407E-09
  2 2 166  6.26729407E-09
  2 2 167  6.26729407E-09
  2 2 168  6.26729407E-09
  2 2 169  6.26729407E-09
  2 2 170  6.26729407E-09
  2 2 171  6.26729407E-09
  2 2 172  6.26729407E-09
  2 2 173  6.26729407E-09
  2 2 174  6.26729407E-09
  2 2 175  6.26729407E-09
  2 2 176  6.26729407E-09
  2 2 177  6.26729407E-09
  2 2 178  6.26729407E-09
  2 2 179  6.26729407E-09
  2 2 180  6.26729407E-09
  2 2 181  6.26729407E-09
  2 2 182  6.26729407E-09
  2 2 183  6.26729407E-09
  2 3 139  6.26729407E-09
  1 3 140  6.26729407E-09
  1 3 141  6.26729407E-09
  1 3 142  6.26729407E-09
  1 3 143  6.26729407E-09
  1 3 144  6.26729407E-09
  1 3 145  6.26729407E-09
  1 3 146  6.26729407E-09
  1 3 147  6.26729407E-09
  1 3 148  6.26729407E-09
  1 3 149  6.26729407E-09
  1 3 150  6.26729407E-09
  1 3 151  6.26729407E-09
  1 3 152  6.26729407E-09
  1 3 153  6.26729407E-09
  1 3 154  6.26729407E-09
  1 3 155  6.26729407E-09
  1 3 156  6.26729407E-09
  1 3 157  6.26729407E-09
  1 3 158  6.26729407E-09
  1 3 159  6.26729407E-09
  1 3 160  6.26729407E-09
  1 3 161  6.26729407E-09
  1 3 162  6.26729407E-09
  1 3 163  6.26729407E-09
  1 3 164  6.26729407E-09
  1 3 165  6.26729407E-09
  1 3 166  6.26729407E-09
  1 3 167  6.26729407E-09
  1 3 168  6.26729407E-09
  1 3 169  6.26729407E-09
  1 3 170  6.26729407E-09
  1 3 171  6.26729407E-09
  1 3 172  6.26729407E-09
  1 3 173  6.26729407E-09
  1 3 174  6.26729407E-09
  1 3 175  6.26729407E-09
  1 3 176  6.26729407E-09
  1 3 177  6.26729407E-09
  1 3 178  6.26729407E-09
  1 3 179  6.26729407E-09
  1 3 180  6.26729407E-09
  1 3 181  6.26729407E-09
  1 3 182  6.26729407E-09
  1 3 183  6.26729407E-09
  1 4 139  6.26729407E-09
  1 4 140  6.26729407E-09
  1 4 141  6.26729407E-09
  1 4 142  6.26729407E-09
  1 4 143  6.26729407E-09
  1 4 144  6.26729407E-09
  1 4 145  6.26729407E-09
  1 4 146  6.26729407E-09
  1 4 147  6.26729407E-09
  1 4 148  6.26729407E-09
  1 4 149  6.26729407E-09
  1 4 150  6.26729407E-09
  1 4 151  6.26729407E-09
  1 4 152  6.26729407E-09
  1 4 153  6.26729407E-09
  1 4 154  6.26729407E-09
  1 4 155  6.26729407E-09
  1 4 156  6.26729407E-09
  1 4 157  6.26729407E-09
  1 4 158  6.26729407E-09
  1 4 159  6.26729407E-09
  1 4 160  6.26729407E-09
  1 4 161  6.26729407E-09
  1 4 162  6.26729407E-09
  1 4 163  6.26729407E-09
  1 4 164  6.26729407E-09
  1 4 165  6.26729407E-09
  1 4 166  6.26729407E-09
  1 4 167  6.26729407E-09
  1 4 168  6.26729407E-09
  1 4 169  6.26729407E-09
  1 4 170  6.26729407E-09
  1 4 171  6.26729407E-09
  1 4 172  6.26729407E-09
  1 4 173  6.26729407E-09
  1 4 174  6.26729407E-09
  1 4 175  6.26729407E-09
  1 4 176  6.26729407E-09
  1 4 177  6.26729407E-09
  1 4 178  6.26729407E-09
  1 4 179  6.26729407E-09
  1 4 180  6.26729407E-09
  1 4 181  6.26729407E-09
  1 4 182  6.26729407E-09
  1 4 183  6.26729407E-09
  1 5 138  6.26729407E-09
  1 5 139  6.26729407E-09
  1 5 140  6.26729407E-09
  1 5 141  6.26729407E-09
  1 5 142  6.26729407E-09
  1 5 143  6.26729407E-09
  1 5 144  6.26729407E-09
  1 5 145  6.26729407E-09
  1 5 146  6.26729407E-09
  1 5 147  6.26729407E-09
  1 5 148  6.26729407E-09
  1 5 149  6.26729407E-09
  1 5 150  6.26729407E-09
  1 5 151  6.26729407E-09
  1 5 152  6.26729407E-09
  1 5 153  6.26729407E-09
  1 5 154  6.26729407E-09
  1 5 155  6.26729407E-09
  1 5 156  6.26729407E-09
  1 5 157  6.26729407E-09
  1 5 158  6.26729407E-09
  1 5 159  6.26729407E-09
  1 5 160  6.26729407E-09
  1 5 161  6.26729407E-09
  1 5 162  6.26729407E-09
  1 5 163  6.26729407E-09
  1 5 164  6.26729407E-09
  1 5 165  6.26729407E-09
  1 5 166  6.26729407E-09
  1 5 167  6.26729407E-09
  1 5 168  6.26729407E-09
  1 5 169  6.26729407E-09
  1 5 170  6.26729407E-09
  1 5 171  6.26729407E-09
  1 5 172  6.26729407E-09
  1 5 173  6.26729407E-09
  1 5 174  6.26729407E-09
  1 5 175  6.26729407E-09
  1 5 176  6.26729407E-09
  1 5 177  6.26729407E-09
  1 5 178  6.26729407E-09
  1 5 179  6.26729407E-09
  1 5 180  6.26729407E-09
  1 5 181  6.26729407E-09
  1 5 182  6.26729407E-09
  1 5 183  6.26729407E-09
  1 6 138  6.26729407E-09
  1 6 139  6.26729407E-09
  1 6 140  6.26729407E-09
  1 6 141  6.26729407E-09
  1 6 142  6.26729407E-09
  1 6 143  6.26729407E-09
  1 6 144  6.26729407E-09
  1 6 145  6.26729407E-09
  1 6 146  6.26729407E-09
  1 6 147  6.26729407E-09
  1 6 148  6.26729407E-09
  1 6 149  6.26729407E-09
  1 6 150  6.26729407E-09
  1 6 151  6.26729407E-09
  1 6 152  6.26729407E-09
  1 6 153  6.26729407E-09
  1 6 154  6.26729407E-09
  1 6 155  6.26729407E-09
  1 6 156  6.26729407E-09
  1 6 157  6.26729407E-09
  1 6 158  6.26729407E-09
  1 6 159  6.26729407E-09
  1 6 160  6.26729407E-09
  1 6 161  6.26729407E-09
  1 6 162  6.26729407E-09
  1 6 163  6.26729407E-09
  1 6 164  6.26729407E-09
  1 6 165  6.26729407E-09
  1 6 166  6.26729407E-09
  1 6 167  6.26729407E-09
  1 6 168  6.26729407E-09
  1 6 169  6.26729407E-09
  1 6 170  6.26729407E-09
  1 6 171  6.26729407E-09
  1 6 172  6.26729407E-09
  1 6 173  6.26729407E-09
  1 6 174  6.26729407E-09
  1 6 175  6.26729407E-09
  1 6 176  6.26729407E-09
  1 6 177  6.26729407E-09
  1 6 178  6.26729407E-09
  1 6 179  6.26729407E-09
  1 6 180  6.26729407E-09
  1 6 181  6.26729407E-09
  1 6 182  6.26729407E-09
  1 6 183  6.26729407E-09
  1 7 137  6.26729407E-09
  1 7 138  6.26729407E-09
  1 7 139  6.26729407E-09
  1 7 140  6.26729407E-09
  1 7 141  6.26729407E-09
  1 7 142  6.26729407E-09
  1 7 143  6.26729407E-09
  1 7 144  6.26729407E-09
  1 7 145  6.26729407E-09
  1 7 146  6.26729407E-09
  1 7 147  6.26729407E-09
  1 7 148  6.26729407E-09
  1 7 149  6.26729407E-09
  1 7 150  6.26729407E-09
  1 7 151  6.26729407E-09
  1 7 152  6.26729407E-09
  1 7 153  6.26729407E-09
  1 7 154  6.26729407E-09
  1 7 155  6.26729407E-09
  1 7 156  6.26729407E-09
  1 7 157  6.26729407E-09
  1 7 158  6.26729407E-09
  1 7 159  6.26729407E-09
  1 7 160  6.26729407E-09
  1 7 161  6.26729407E-09
  1 7 162  6.26729407E-09
  1 7 163  6.26729407E-09
  1 7 164  6.26729407E-09
  1 7 165  6.26729407E-09
  1 7 166  6.26729407E-09
  1 7 167  6.26729407E-09
  1 7 168  6.26729407E-09
  1 7 169  6.26729407E-09
  1 7 170  6.26729407E-09
  1 7 171  6.26729407E-09
  1 7 172  6.26729407E-09
  1 7 173  6.26729407E-09
  1 7 174  6.26729407E-09
  1 7 175  6.26729407E-09
  1 7 176  6.26729407E-09
  1 7 177  6.26729407E-09
  1 7 178  6.26729407E-09
  1 7 179  6.26729407E-09
  1 7 180  6.26729407E-09
  1 7 181  6.26729407E-09
  1 7 182  6.26729407E-09
  1 7 183  6.26729407E-09
  1 8 137  6.26729407E-09
  1 8 138  6.26729407E-09
  1 8 139  6.26729407E-09
  1 8 140  6.26729407E-09
  1 8 141  6.26729407E-09
  1 8 142  6.26729407E-09
  1 8 143  6.26729407E-09
  1 8 144  6.26729407E-09
  1 8 145  6.26729407E-09
  1 8 146  6.26729407E-09
  1 8 147  6.26729407E-09
  1 8 148  6.26729407E-09
  1 8 149  6.26729407E-09
  1 8 150  6.26729407E-09
  1 8 151  6.26729407E-09
  1 8 152  6.26729407E-09
  1 8 153  6.26729407E-09
  1 8 154  6.26729407E-09
  1 8 155  6.26729407E-09
  1 8 156  6.26729407E-09
  1 8 157  6.26729407E-09
  1 8 158  6.26729407E-09
  1 8 159  6.26729407E-09
  1 8 160  6.26729407E-09
  1 8 161  6.26729407E-09
  1 8 162  6.26729407E-09
  1 8 163  6.26729407E-09
  1 8 164  6.26729407E-09
  1 8 165  6.26729407E-09
  1 8 166  6.26729407E-09
  1 8 167  6.26729407E-09
  1 8 168  6.26729407E-09
  1 8 169  6.26729407E-09
  1 8 170  6.26729407E-09
  1 8 171  6.26729407E-09
  1 8 172  6.26729407E-09
  1 8 173  6.26729407E-09
  1 8 174  6.26729407E-09
  1 8 175  6.26729407E-09
  1 8 176  6.26729407E-09
  1 8 177  6.26729407E-09
  1 8 178  6.26729407E-09
  1 8 179  6.26729407E-09
  1 8 180  6.26729407E-09
  1 8 181  6.26729407E-09
  1 8 182  6.26729407E-09
  1 8 183  6.26729407E-09
  1 9 136  6.26729407E-09
  1 9 137  6.26729407E-09
  1 9 138  6.26729407E-09
  1 9 139  6.26729407E-09
  1 9 140  6.26729407E-09
  1 9 141  6.26729407E-09
  1 9 142  6.26729407E-09
  1 9 143  6.26729407E-09
  1 9 144  6.26729407E-09
  1 9 145  6.26729407E-09
  1 9 146  6.26729407E-09
  1 9 147  6.26729407E-09
  1 9 148  6.26729407E-09
  1 9 149  6.26729407E-09
  1 9 150  6.26729407E-09
  1 9 151  6.26729407E-09
  1 9 152  6.26729407E-09
  1 9 153  6.26729407E-09
  1 9 154  6.26729407E-09
  1 9 155  6.26729407E-09
  1 9 156  6.26729407E-09
  1 9 157  6.26729407E-09
  1 9 158  6.26729407E-09
  1 9 159  6.26729407E-09
  1 9 160  6.26729407E-09
  1 9 161  6.26729407E-09
  1 9 162  6.26729407E-09
  1 9 163  6.26729407E-09
  1 9 164  6.26729407E-09
  1 9 165  6.26729407E-09
  1 9 166  6.26729407E-09
  1 9 167  6.26729407E-09
  1 9 168  6.26729407E-09
  1 9 169  6.26729407E-09
  1 9 170  6.26729407E-09
  1 9 171  6.26729407E-09
  1 9 172  6.26729407E-09
  1 9 173  6.26729407E-09
  1 9 174  6.26729407E-09
  1 9 175  6.26729407E-09
  1 9 176  6.26729407E-09
  1 9 177  6.26729407E-09
  1 9 178  6.26729407E-09
  1 9 179  6.26729407E-09
  1 9 180  6.26729407E-09
  1 9 181  6.26729407E-09
  1 9 182  6.26729407E-09
  1 9 183  6.26729407E-09
  1 10 135  6.26729407E-09
  1 10 136  6.26729407E-09
  1 10 137  6.26729407E-09
  1 10 138  6.26729407E-09
  1 10 139  6.26729407E-09
  1 10 140  6.26729407E-09
  1 10 141  6.26729407E-09
  1 10 142  6.26729407E-09
  1 10 143  6.26729407E-09
  1 10 144  6.26729407E-09
  1 10 145  6.26729407E-09
  1 10 146  6.26729407E-09
  1 10 147  6.26729407E-09
  1 10 148  6.26729407E-09
  1 10 149  6.26729407E-09
  1 10 150  6.26729407E-09
  1 10 151  6.26729407E-09
  1 10 152  6.26729407E-09
  1 10 153  6.26729407E-09
  1 10 154  6.26729407E-09
  1 10 155  6.26729407E-09
  1 10 156  6.26729407E-09
  1 10 157  6.26729407E-09
  1 10 158  6.26729407E-09
  1 10 159  6.26729407E-09
  1 10 160  6.26729407E-09
  1 10 161  6.26729407E-09
  1 10 162  6.26729407E-09
  1 10 163  6.26729407E-09
  1 10 164  6.26729407E-09
  1 10 165  6.26729407E-09
  1 10 166  6.26729407E-09
  1 10 167  6.26729407E-09
  1 10 168  6.26729407E-09
  1 10 169  6.26729407E-09
  1 10 170  6.26729407E-09
  1 10 171  6.26729407E-09
  1 10 172  6.26729407E-09
  1 10 173  6.26729407E-09
  1 10 174  6.26729407E-09
  1 10 175  6.26729407E-09
  1 10 176  6.26729407E-09
  1 10 177  6.26729407E-09
  1 10 178  6.26729407E-09
  1 10 179  6.26729407E-09
  1 10 180  6.26729407E-09
  1 10 181  6.26729407E-09
  1 10 182  6.26729407E-09
  1 10 183  6.26729407E-09
  1 11 134  6.26729407E-09
  1 11 135  6.26729407E-09
  1 11 136  6.26729407E-09
  1 11 137  6.26729407E-09
  1 11 138  6.26729407E-09
  1 11 139  6.26729407E-09
  1 11 140  6.26729407E-09
  1 11 141  6.26729407E-09
  1 11 142  6.26729407E-09
  1 11 143  6.26729407E-09
  1 11 144  6.26729407E-09
  1 11 145  6.26729407E-09
  1 11 146  6.26729407E-09
  1 11 147  6.26729407E-09
  1 11 148  6.26729407E-09
  1 11 149  6.26729407E-09
  1 11 150  6.26729407E-09
  1 11 151  6.26729407E-09
  1 11 152  6.26729407E-09
  1 11 153  6.26729407E-09
  1 11 154  6.26729407E-09
  1 11 155  6.26729407E-09
  1 11 156  6.26729407E-09
  1 11 157  6.26729407E-09
  1 11 158  6.26729407E-09
  1 11 159  6.26729407E-09
  1 11 160  6.26729407E-09
  1 11 161  6.26729407E-09
  1 11 162  6.26729407E-09
  1 11 163  6.26729407E-09
  1 11 164  6.26729407E-09
  1 11 165  6.26729407E-09
  1 11 166  6.26729407E-09
  1 11 167  6.26729407E-09
  1 11 168  6.26729407E-09
  1 11 169  6.26729407E-09
  1 11 170  6.26729407E-09
  1 11 171  6.26729407E-09
  1 11 172  6.26729407E-09
  1 11 173  6.26729407E-09
  1 11 174  6.26729407E-09
  1 11 175  6.26729407E-09
  1 11 176  6.26729407E-09
  1 11 177  6.26729407E-09
  1 11 178  6.26729407E-09
  1 11 179  6.26729407E-09
  1 11 180  6.26729407E-09
  1 11 181  6.26729407E-09
  1 11 182  6.26729407E-09
  1 11 183  6.26729407E-09
  1 12 133  6.26729407E-09
  1 12 134  6.26729407E-09
  1 12 135  6.26729407E-09
  1 12 136  6.26729407E-09
  1 12 137  6.26729407E-09
  1 12 138  6.26729407E-09
  1 12 139  6.26729407E-09
  1 12 140  6.26729407E-09
  1 12 141  6.26729407E-09
  1 12 142  6.26729407E-09
  1 12 143  6.26729407E-09
  1 12 144  6.26729407E-09
  1 12 145  6.26729407E-09
  1 12 146  6.26729407E-09
  1 12 147  6.26729407E-09
  1 12 148  6.26729407E-09
  1 12 149  6.26729407E-09
  1 12 150  6.26729407E-09
  1 12 151  6.26729407E-09
  1 12 152  6.26729407E-09
  1 12 153  6.26729407E-09
  1 12 154  6.26729407E-09
  1 12 155  6.26729407E-09
  1 12 156  6.26729407E-09
  1 12 157  6.26729407E-09
  1 12 158  6.26729407E-09
  1 12 159  6.26729407E-09
  1 12 160  6.26729407E-09
  1 12 161  6.26729407E-09
  1 12 162  6.26729407E-09
  1 12 163  6.26729407E-09
  1 12 164  6.26729407E-09
  1 12 165  6.26729407E-09
  1 12 166  6.26729407E-09
  1 12 167  6.26729407E-09
  1 12 168  6.26729407E-09
  1 12 169  6.26729407E-09
  1 12 170  6.26729407E-09
  1 12 171  6.26729407E-09
  1 12 172  6.26729407E-09
  1 12 173  6.26729407E-09
  1 12 174  6.26729407E-09
  1 12 175  6.26729407E-09
  1 12 176  6.26729407E-09
  1 12 177  6.26729407E-09
  1 12 178  6.26729407E-09
  1 12 179  6.26729407E-09
  1 12 180  6.26729407E-09
  1 12 181  6.26729407E-09
  1 12 182  6.26729407E-09
  1 12 183  6.26729407E-09
  4 13 125  6.26729407E-09
  4 13 126  6.26729407E-09
  4 13 127  6.26729407E-09
  1 13 132  6.26729407E-09
  1 13 133  6.26729407E-09
  1 13 134  6.26729407E-09
  1 13 135  6.26729407E-09
  1 13 136  6.26729407E-09
  1 13 137  6.26729407E-09
  1 13 138  6.26729407E-09
  1 13 139  6.26729407E-09
  1 13 140  6.26729407E-09
  1 13 141  6.26729407E-09
  1 13 142  6.26729407E-09
  1 13 143  6.26729407E-09
  1 13 144  6.26729407E-09
  1 13 145  6.26729407E-09
  1 13 146  6.26729407E-09
  1 13 147  6.26729407E-09
  1 13 148  6.26729407E-09
  1 13 149  6.26729407E-09
  1 13 150  6.26729407E-09
  1 13 151  6.26729407E-09
  1 13 152  6.26729407E-09
  1 13 153  6.26729407E-09
  1 13 154  6.26729407E-09
  1 13 155  6.26729407E-09
  1 13 156  6.26729407E-09
  1 13 157  6.26729407E-09
  1 13 158  6.26729407E-09
  1 13 159  6.26729407E-09
  1 13 160  6.26729407E-09
  1 13 161  6.26729407E-09
  1 13 162  6.26729407E-09
  1 13 163  6.26729407E-09
  1 13 164  6.26729407E-09
  1 13 165  6.26729407E-09
  1 13 166  6.26729407E-09
  1 13 167  6.26729407E-09
  1 13 168  6.26729407E-09
  1 13 169  6.26729407E-09
  1 13 170  6.26729407E-09
  1 13 171  6.26729407E-09
  1 13 172  6.26729407E-09
  1 13 173  6.26729407E-09
  1 13 174  6.26729407E-09
  1 13 175  6.26729407E-09
  1 13 176  6.26729407E-09
  1 13 177  6.26729407E-09
  1 13 178  6.26729407E-09
  1 13 179  6.26729407E-09
  1 13 180  6.26729407E-09
  1 13 181  6.26729407E-09
  1 13 182  6.26729407E-09
  1 13 183  6.26729407E-09
  5 14 123  6.26729407E-09
  4 14 124  6.26729407E-09
  4 14 125  6.26729407E-09
  4 14 126  6.26729407E-09
  4 14 127  6.26729407E-09
  4 14 128  6.26729407E-09
  4 14 129  6.26729407E-09
  1 14 131  6.26729407E-09
  1 14 132  6.26729407E-09
  1 14 133  6.26729407E-09
  1 14 134  6.26729407E-09
  1 14 135  6.26729407E-09
  1 14 136  6.26729407E-09
  1 14 137  6.26729407E-09
  1 14 138  6.26729407E-09
  1 14 139  6.26729407E-09
  1 14 140  6.26729407E-09
  1 14 141  6.26729407E-09
  1 14 142  6.26729407E-09
  1 14 143  6.26729407E-09
  1 14 144  6.26729407E-09
  1 14 145  6.26729407E-09
  1 14 146  6.26729407E-09
  1 14 147  6.26729407E-09
  1 14 148  6.26729407E-09
  1 14 149  6.26729407E-09
  1 14 150  6.26729407E-09
  1 14 151  6.26729407E-09
  1 14 152  6.26729407E-09
  1 14 153  6.26729407E-09
  1 14 154  6.26729407E-09
  1 14 155  6.26729407E-09
  1 14 156  6.26729407E-09
  1 14 157  6.26729407E-09
  1 14 158  6.26729407E-09
  1 14 159  6.26729407E-09
  1 14 160  6.26729407E-09
  1 14 161  6.26729407E-09
  1 14 162  6.26729407E-09
  1 14 163  6.26729407E-09
  1 14 164  6.26729407E-09
  1 14 165  6.26729407E-09
  1 14 166  6.26729407E-09
  1 14 167  6.26729407E-09
  1 14 168  6.26729407E-09
  1 14 169  6.26729407E-09
  1 14 170  6.26729407E-09
  1 14 171  6.26729407E-09
  1 14 172  6.26729407E-09
  1 14 173  6.26729407E-09
  1 14 174  6.26729407E-09
  1 14 175  6.26729407E-09
  1 14 176  6.26729407E-09
  1 14 177  6.26729407E-09
  1 14 178  6.26729407E-09
  1 14 179  6.26729407E-09
  1 14 180  6.26729407E-09
  1 14 181  6.26729407E-09
  1 14 182  6.26729407E-09
  1 14 183  6.26729407E-09
  4 15 124  6.26729407E-09
  4 15 125  6.26729407E-09
  4 15 126  6.26729407E-09
  4 15 127  6.26729407E-09
  4 15 128  6.26729407E-09
  4 15 129  6.26729407E-09
  4 15 130  6.26729407E-09
  4 15 131  6.26729407E-09
  4 15 132  6.26729407E-09
  1 15 133  6.26729407E-09
  1 15 134  6.26729407E-09
  1 15 135  6.26729407E-09
  1 15 136  6.26729407E-09
  1 15 137  6.26729407E-09
  1 15 138  6.26729407E-09
  1 15 139  6.26729407E-09
  1 15 140  6.26729407E-09
  1 15 141  6.26729407E-09
  1 15 142  6.26729407E-09
  1 15 143  6.26729407E-09
  1 15 144  6.26729407E-09
  1 15 145  6.26729407E-09
  1 15 146  6.26729407E-09
  1 15 147  6.26729407E-09
  1 15 148  6.26729407E-09
  1 15 149  6.26729407E-09
  1 15 150  6.26729407E-09
  1 15 151  6.26729407E-09
  1 15 152  6.26729407E-09
  1 15 153  6.26729407E-09
  1 15 154  6.26729407E-09
  1 15 155  6.26729407E-09
  1 15 156  6.26729407E-09
  1 15 157  6.26729407E-09
  1 15 158  6.26729407E-09
  1 15 159  6.26729407E-09
  1 15 160  6.26729407E-09
  1 15 161  6.26729407E-09
  1 15 162  6.26729407E-09
  1 15 163  6.26729407E-09
  1 15 164  6.26729407E-09
  1 15 165  6.26729407E-09
  1 15 166  6.26729407E-09
  1 15 167  6.26729407E-09
  1 15 168  6.26729407E-09
  1 15 169  6.26729407E-09
  1 15 170  6.26729407E-09
  1 15 171  6.26729407E-09
  1 15 172  6.26729407E-09
  1 15 173  6.26729407E-09
  1 15 174  6.26729407E-09
  1 15 175  6.26729407E-09
  1 15 176  6.26729407E-09
  1 15 177  6.26729407E-09
  1 15 178  6.26729407E-09
  1 15 179  6.26729407E-09
  1 15 180  6.26729407E-09
  1 15 181  6.26729407E-09
  1 15 182  6.26729407E-09
  1 15 183  6.26729407E-09
  4 16 124  6.26729407E-09
  4 16 125  6.26729407E-09
  4 16 126  6.26729407E-09
  4 16 127  6.26729407E-09
  4 16 128  6.26729407E-09
  4 16 129  6.26729407E-09
  4 16 130  6.26729407E-09
  4 16 131  6.26729407E-09
  4 16 132  6.26729407E-09
  4 16 133  6.26729407E-09
  1 16 134  6.26729407E-09
  1 16 135  6.26729407E-09
  1 16 136  6.26729407E-09
  1 16 137  6.26729407E-09
  1 16 138  6.26729407E-09
  1 16 139  6.26729407E-09
  1 16 140  6.26729407E-09
  1 16 141  6.26729407E-09
  1 16 142  6.26729407E-09
  1 16 143  6.26729407E-09
  1 16 144  6.26729407E-09
  1 16 145  6.26729407E-09
  1 16 146  6.26729407E-09
  1 16 147  6.26729407E-09
  1 16 148  6.26729407E-09
  1 16 149  6.26729407E-09
  1 16 150  6.26729407E-09
  1 16 151  6.26729407E-09
  1 16 152  6.26729407E-09
  1 16 153  6.26729407E-09
  1 16 154  6.26729407E-09
  1 16 155  6.26729407E-09
  1 16 156  6.26729407E-09
  1 16 157  6.26729407E-09
  1 16 158  6.26729407E-09
  1 16 159  6.26729407E-09
  1 16 160  6.26729407E-09
  1 16 161  6.26729407E-09
  1 16 162  6.26729407E-09
  1 16 163  6.26729407E-09
  1 16 164  6.26729407E-09
  1 16 165  6.26729407E-09
  1 16 166  6.26729407E-09
  1 16 167  6.26729407E-09
  1 16 168  6.26729407E-09
  1 16 169  6.26729407E-09
  1 16 170  6.26729407E-09
  1 16 171  6.26729407E-09
  1 16 172  6.26729407E-09
  1 16 173  6.26729407E-09
  1 16 174  6.26729407E-09
  1 16 175  6.26729407E-09
  1 16 176  6.26729407E-09
  1 16 177  6.26729407E-09
  1 16 178  6.26729407E-09
  1 16 179  6.26729407E-09
  1 16 180  6.26729407E-09
  1 16 181  6.26729407E-09
  1 16 182  6.26729407E-09
  1 16 183  6.26729407E-09
  4 17 124  6.26729407E-09
  4 17 125  6.26729407E-09
  4 17 126  6.26729407E-09
  4 17 127  6.26729407E-09
  4 17 128  6.26729407E-09
  4 17 129  6.26729407E-09
  4 17 130  6.26729407E-09
  4 17 131  6.26729407E-09
  4 17 132  6.26729407E-09
  4 17 133  6.26729407E-09
  4 17 134  6.26729407E-09
  1 17 135  6.26729407E-09
  1 17 136  6.26729407E-09
  1 17 137  6.26729407E-09
  1 17 138  6.26729407E-09
  1 17 139  6.26729407E-09
  1 17 140  6.26729407E-09
  1 17 141  6.26729407E-09
  1 17 142  6.26729407E-09
  1 17 143  6.26729407E-09
  1 17 144  6.26729407E-09
  1 17 145  6.26729407E-09
  1 17 146  6.26729407E-09
  1 17 147  6.26729407E-09
  1 17 148  6.26729407E-09
  1 17 149  6.26729407E-09
  1 17 150  6.26729407E-09
  1 17 151  6.26729407E-09
  1 17 152  6.26729407E-09
  1 17 153  6.26729407E-09
  1 17 154  6.26729407E-09
  1 17 155  6.26729407E-09
  1 17 156  6.26729407E-09
  1 17 157  6.26729407E-09
  1 17 158  6.26729407E-09
  1 17 159  6.26729407E-09
  1 17 160  6.26729407E-09
  1 17 161  6.26729407E-09
  1 17 162  6.26729407E-09
  1 17 163  6.26729407E-09
  1 17 164  6.26729407E-09
  1 17 165  6.26729407E-09
  1 17 166  6.26729407E-09
  1 17 167  6.26729407E-09
  1 17 168  6.26729407E-09
  1 17 169  6.26729407E-09
  1 17 170  6.26729407E-09
  1 17 171  6.26729407E-09
  1 17 172  6.26729407E-09
  1 17 173  6.26729407E-09
  1 17 174  6.26729407E-09
  1 17 175  6.26729407E-09
  1 17 176  6.26729407E-09
  1 17 177  6.26729407E-09
  1 17 178  6.26729407E-09
  1 17 179  6.26729407E-09
  1 17 180  6.26729407E-09
  1 17 181  6.26729407E-09
  1 17 182  6.26729407E-09
  1 17 183  6.26729407E-09
  4 18 124  6.26729407E-09
  4 18 125  6.26729407E-09
  4 18 126  6.26729407E-09
  4 18 127  6.26729407E-09
  4 18 128  6.26729407E-09
  4 18 129  6.26729407E-09
  4 18 130  6.26729407E-09
  4 18 131  6.26729407E-09
  4 18 132  6.26729407E-09
  4 18 133  6.26729407E-09
  4 18 134  6.26729407E-09
  1 18 135  6.26729407E-09
  1 18 136  6.26729407E-09
  1 18 137  6.26729407E-09
  1 18 138  6.26729407E-09
  1 18 139  6.26729407E-09
  1 18 140  6.26729407E-09
  1 18 141  6.26729407E-09
  1 18 142  6.26729407E-09
  1 18 143  6.26729407E-09
  1 18 144  6.26729407E-09
  1 18 145  6.26729407E-09
  1 18 146  6.26729407E-09
  1 18 147  6.26729407E-09
  1 18 148  6.26729407E-09
  1 18 149  6.26729407E-09
  1 18 150  6.26729407E-09
  1 18 151  6.26729407E-09
  1 18 152  6.26729407E-09
  1 18 153  6.26729407E-09
  1 18 154  6.26729407E-09
  1 18 155  6.26729407E-09
  1 18 156  6.26729407E-09
  1 18 157  6.26729407E-09
  1 18 158  6.26729407E-09
  1 18 159  6.26729407E-09
  1 18 160  6.26729407E-09
  1 18 161  6.26729407E-09
  1 18 162  6.26729407E-09
  1 18 163  6.26729407E-09
  1 18 164  6.26729407E-09
  1 18 165  6.26729407E-09
  1 18 166  6.26729407E-09
  1 18 167  6.26729407E-09
  1 18 168  6.26729407E-09
  1 18 169  6.26729407E-09
  1 18 170  6.26729407E-09
  1 18 171  6.26729407E-09
  1 18 172  6.26729407E-09
  1 18 173  6.26729407E-09
  1 18 174  6.26729407E-09
  1 18 175  6.26729407E-09
  1 18 176  6.26729407E-09
  1 18 177  6.26729407E-09
  1 18 178  6.26729407E-09
  1 18 179  6.26729407E-09
  1 18 180  6.26729407E-09
  1 18 181  6.26729407E-09
  1 18 182  6.26729407E-09
  1 18 183  6.26729407E-09
  4 19 125  6.26729407E-09
  4 19 126  6.26729407E-09
  4 19 127  6.26729407E-09
  4 19 128  6.26729407E-09
  4 19 129  6.26729407E-09
  4 19 130  6.26729407E-09
  4 19 131  6.26729407E-09
  4 19 132  6.26729407E-09
  4 19 133  6.26729407E-09
  4 19 134  6.26729407E-09
  1 19 135  6.26729407E-09
  1 19 136  6.26729407E-09
  1 19 137  6.26729407E-09
  1 19 138  6.26729407E-09
  1 19 139  6.26729407E-09
  1 19 140  6.26729407E-09
  1 19 141  6.26729407E-09
  1 19 142  6.26729407E-09
  1 19 143  6.26729407E-09
  1 19 144  6.26729407E-09
  1 19 145  6.26729407E-09
  1 19 146  6.26729407E-09
  1 19 147  6.26729407E-09
  1 19 148  6.26729407E-09
  1 19 149  6.26729407E-09
  1 19 150  6.26729407E-09
  1 19 151  6.26729407E-09
  1 19 152  6.26729407E-09
  1 19 153  6.26729407E-09
  1 19 154  6.26729407E-09
  1 19 155  6.26729407E-09
  1 19 156  6.26729407E-09
  1 19 157  6.26729407E-09
  1 19 158  6.26729407E-09
  1 19 159  6.26729407E-09
  1 19 160  6.26729407E-09
  1 19 161  6.26729407E-09
  1 19 162  6.26729407E-09
  1 19 163  6.26729407E-09
  1 19 164  6.26729407E-09
  1 19 165  6.26729407E-09
  1 19 166  6.26729407E-09
  1 19 167  6.26729407E-09
  1 19 168  6.26729407E-09
  1 19 169  6.26729407E-09
  1 19 170  6.26729407E-09
  1 19 171  6.26729407E-09
  1 19 172  6.26729407E-09
  1 19 173  6.26729407E-09
  1 19 174  6.26729407E-09
  1 19 175  6.26729407E-09
  1 19 176  6.26729407E-09
  1 19 177  6.26729407E-09
  1 19 178  6.26729407E-09
  1 19 179  6.26729407E-09
  1 19 180  6.26729407E-09
  1 19 181  6.26729407E-09
  1 19 182  6.26729407E-09
  1 19 183  6.26729407E-09
  4 20 125  6.26729407E-09
  4 20 126  6.26729407E-09
  4 20 127  6.26729407E-09
  4 20 128  6.26729407E-09
  4 20 129  6.26729407E-09
  4 20 130  6.26729407E-09
  4 20 131  6.26729407E-09
  4 20 132  6.26729407E-09
  4 20 133  6.26729407E-09
  4 20 134  6.26729407E-09
  1 20 135  6.26729407E-09
  1 20 136  6.26729407E-09
  1 20 137  6.26729407E-09
  1 20 138  6.26729407E-09
  1 20 139  6.26729407E-09
  1 20 140  6.26729407E-09
  1 20 141  6.26729407E-09
  1 20 142  6.26729407E-09
  1 20 143  6.26729407E-09
  1 20 144  6.26729407E-09
  1 20 145  6.26729407E-09
  1 20 146  6.26729407E-09
  1 20 147  6.26729407E-09
  1 20 148  6.26729407E-09
  1 20 149  6.26729407E-09
  1 20 150  6.26729407E-09
  1 20 151  6.26729407E-09
  1 20 152  6.26729407E-09
  1 20 153  6.26729407E-09
  1 20 154  6.26729407E-09
  1 20 155  6.26729407E-09
  1 20 156  6.26729407E-09
  1 20 157  6.26729407E-09
  1 20 158  6.26729407E-09
  1 20 159  6.26729407E-09
  1 20 160  6.26729407E-09
  1 20 161  6.26729407E-09
  1 20 162  6.26729407E-09
  1 20 163  6.26729407E-09
  1 20 164  6.26729407E-09
  1 20 165  6.26729407E-09
  1 20 166  6.26729407E-09
  1 20 167  6.26729407E-09
  1 20 168  6.26729407E-09
  1 20 169  6.26729407E-09
  1 20 170  6.26729407E-09
  1 20 171  6.26729407E-09
  1 20 172  6.26729407E-09
  1 20 173  6.26729407E-09
  1 20 174  6.26729407E-09
  1 20 175  6.26729407E-09
  1 20 176  6.26729407E-09
  1 20 177  6.26729407E-09
  1 20 178  6.26729407E-09
  1 20 179  6.26729407E-09
  1 20 180  6.26729407E-09
  1 20 181  6.26729407E-09
  1 20 182  6.26729407E-09
  1 20 183  6.26729407E-09
  4 21 127  6.26729407E-09
  4 21 128  6.26729407E-09
  4 21 129  6.26729407E-09
  4 21 130  6.26729407E-09
  4 21 131  6.26729407E-09
  4 21 132  6.26729407E-09
  4 21 133  6.26729407E-09
  2 21 134  6.26729407E-09
  1 21 135  6.26729407E-09
  1 21 136  6.26729407E-09
  1 21 137  6.26729407E-09
  1 21 138  6.26729407E-09
  1 21 139  6.26729407E-09
  1 21 140  6.26729407E-09
  1 21 141  6.26729407E-09
  1 21 142  6.26729407E-09
  1 21 143  6.26729407E-09
  1 21 144  6.26729407E-09
  1 21 145  6.26729407E-09
  1 21 146  6.26729407E-09
  1 21 147  6.26729407E-09
  1 21 148  6.26729407E-09
  1 21 149  6.26729407E-09
  1 21 150  6.26729407E-09
  1 21 151  6.26729407E-09
  1 21 152  6.26729407E-09
  1 21 153  6.26729407E-09
  1 21 154  6.26729407E-09
  1 21 155  6.26729407E-09
  1 21 156  6.26729407E-09
  1 21 157  6.26729407E-09
  1 21 158  6.26729407E-09
  1 21 159  6.26729407E-09
  1 21 160  6.26729407E-09
  1 21 161  6.26729407E-09
  1 21 162  6.26729407E-09
  1 21 163  6.26729407E-09
  1 21 164  6.26729407E-09
  1 21 165  6.26729407E-09
  1 21 166  6.26729407E-09
  1 21 167  6.26729407E-09
  1 21 168  6.26729407E-09
  1 21 169  6.26729407E-09
  1 21 170  6.26729407E-09
  1 21 171  6.26729407E-09
  1 21 172  6.26729407E-09
  1 21 173  6.26729407E-09
  1 21 174  6.26729407E-09
  1 21 175  6.26729407E-09
  1 21 176  6.26729407E-09
  1 21 177  6.26729407E-09
  1 21 178  6.26729407E-09
  1 21 179  6.26729407E-09
  1 21 180  6.26729407E-09
  1 21 181  6.26729407E-09
  1 21 182  6.26729407E-09
  1 21 183  6.26729407E-09
  4 22 129  6.26729407E-09
  4 22 130  6.26729407E-09
  4 22 131  6.26729407E-09
  4 22 132  6.26729407E-09
  2 22 133  6.26729407E-09
  2 22 134  6.26729407E-09
  1 22 135  6.26729407E-09
  1 22 136  6.26729407E-09
  1 22 137  6.26729407E-09
  1 22 138  6.26729407E-09
  1 22 139  6.26729407E-09
  1 22 140  6.26729407E-09
  1 22 141  6.26729407E-09
  1 22 142  6.26729407E-09
  1 22 143  6.26729407E-09
  1 22 144  6.26729407E-09
  1 22 145  6.26729407E-09
  1 22 146  6.26729407E-09
  1 22 147  6.26729407E-09
  1 22 148  6.26729407E-09
  1 22 149  6.26729407E-09
  1 22 150  6.26729407E-09
  1 22 151  6.26729407E-09
  1 22 152  6.26729407E-09
  1 22 153  6.26729407E-09
  1 22 154  6.26729407E-09
  1 22 155  6.26729407E-09
  1 22 156  6.26729407E-09
  1 22 157  6.26729407E-09
  1 22 158  6.26729407E-09
  1 22 159  6.26729407E-09
  1 22 160  6.26729407E-09
  1 22 161  6.26729407E-09
  1 22 162  6.26729407E-09
  1 22 163  6.26729407E-09
  1 22 164  6.26729407E-09
  1 22 165  6.26729407E-09
  1 22 166  6.26729407E-09
  1 22 167  6.26729407E-09
  1 22 168  6.26729407E-09
  1 22 169  6.26729407E-09
  1 22 170  6.26729407E-09
  1 22 171  6.26729407E-09
  1 22 172  6.26729407E-09
  1 22 173  6.26729407E-09
  1 22 174  6.26729407E-09
  1 22 175  6.26729407E-09
  1 22 176  6.26729407E-09
  1 22 177  6.26729407E-09
  1 22 178  6.26729407E-09
  1 22 179  6.26729407E-09
  1 22 180  6.26729407E-09
  1 22 181  6.26729407E-09
  1 22 182  6.26729407E-09
  1 22 183  6.26729407E-09
  4 23 127  6.26729407E-09
  4 23 128  6.26729407E-09
  4 23 129  6.26729407E-09
  4 23 130  6.26729407E-09
  4 23 131  6.26729407E-09
  2 23 132  6.26729407E-09
  2 23 133  6.26729407E-09
  2 23 134  6.26729407E-09
  1 23 135  6.26729407E-09
  1 23 136  6.26729407E-09
  1 23 137  6.26729407E-09
  1 23 138  6.26729407E-09
  1 23 139  6.26729407E-09
  1 23 140  6.26729407E-09
  1 23 141  6.26729407E-09
  1 23 142  6.26729407E-09