BEGIN options
END options

BEGIN dimensions
  MAXBOUND  26330
END dimensions

BEGIN period  1
  1 2 144  3.66065312E-09
  1 2 145  3.66065312E-09
  1 2 146  3.66065312E-09
  1 2 147  3.66065312E-09
  1 2 148  3.66065312E-09
  1 2 149  3.66065312E-09
  1 2 150  3.66065312E-09
  1 2 151  3.66065312E-09
  1 2 152  3.66065312E-09
  1 2 153  3.66065312E-09
  1 2 154  3.66065312E-09
  1 2 155  3.66065312E-09
  1 2 156  3.66065312E-09
  1 2 157  3.66065312E-09
  1 2 158  3.66065312E-09
  1 2 159  3.66065312E-09
  1 2 160  3.66065312E-09
  1 2 161  3.66065312E-09
  1 2 162  3.66065312E-09
  1 2 163  3.66065312E-09
  1 2 164  3.66065312E-09
  1 2 165  3.66065312E-09
  1 2 166  3.66065312E-09
  1 2 167  3.66065312E-09
  1 2 168  3.66065312E-09
  1 2 169  3.66065312E-09
  1 2 170  3.66065312E-09
  1 2 171  3.66065312E-09
  1 2 172  3.66065312E-09
  1 2 173  3.66065312E-09
  1 2 174  3.66065312E-09
  1 2 175  3.66065312E-09
  1 2 176  3.66065312E-09
  1 2 177  3.66065312E-09
  1 2 178  3.66065312E-09
  1 2 179  3.66065312E-09
  1 2 180  3.66065312E-09
  1 2 181  3.66065312E-09
  1 2 182  3.66065312E-09
  1 2 183  3.66065312E-09
  1 2 184  3.66065312E-09
  1 2 185  3.66065312E-09
  1 2 186  3.66065312E-09
  1 2 187  3.66065312E-09
  1 2 188  3.66065312E-09
  1 2 189  3.66065312E-09
  1 2 190  3.66065312E-09
  1 2 191  3.66065312E-09
  1 2 192  3.66065312E-09
  1 2 193  3.66065312E-09
  1 2 194  3.66065312E-09
  1 2 195  3.66065312E-09
  1 2 196  3.66065312E-09
  1 2 197  3.66065312E-09
  1 2 198  3.66065312E-09
  1 2 199  3.66065312E-09
  1 2 200  3.66065312E-09
  1 2 201  3.66065312E-09
  1 2 202  3.66065312E-09
  1 2 203  3.66065312E-09
  1 2 204  3.66065312E-09
  1 2 205  3.66065312E-09
  1 2 206  3.66065312E-09
  1 2 207  3.66065312E-09
  1 2 208  3.66065312E-09
  1 2 209  3.66065312E-09
  1 2 210  3.66065312E-09
  1 2 211  3.66065312E-09
  1 2 212  3.66065312E-09
  1 2 213  3.66065312E-09
  1 2 214  3.66065312E-09
  1 2 215  3.66065312E-09
  1 2 216  3.66065312E-09
  1 2 217  3.66065312E-09
  1 2 218  3.66065312E-09
  1 2 219  3.66065312E-09
  1 2 220  3.66065312E-09
  1 2 221  3.66065312E-09
  1 2 222  3.66065312E-09
  1 2 223  3.66065312E-09
  1 2 224  3.66065312E-09
  1 2 225  3.66065312E-09
  1 2 226  3.66065312E-09
  1 2 227  3.66065312E-09
  1 2 228  3.66065312E-09
  1 2 229  3.66065312E-09
  1 2 230  3.66065312E-09
  1 2 231  3.66065312E-09
  1 2 232  3.66065312E-09
  1 2 233  3.66065312E-09
  1 3 143  3.66065312E-09
  1 3 144  3.66065312E-09
  1 3 145  3.66065312E-09
  1 3 146  3.66065312E-09
  1 3 147  3.66065312E-09
  1 3 148  3.66065312E-09
  1 3 149  3.66065312E-09
  1 3 150  3.66065312E-09
  1 3 151  3.66065312E-09
  1 3 152  3.66065312E-09
  1 3 153  3.66065312E-09
  1 3 154  3.66065312E-09
  1 3 155  3.66065312E-09
  1 3 156  3.66065312E-09
  1 3 157  3.66065312E-09
  1 3 158  3.66065312E-09
  1 3 159  3.66065312E-09
  1 3 160  3.66065312E-09
  1 3 161  3.66065312E-09
  1 3 162  3.66065312E-09
  1 3 163  3.66065312E-09
  1 3 164  3.66065312E-09
  1 3 165  3.66065312E-09
  1 3 166  3.66065312E-09
  1 3 167  3.66065312E-09
  1 3 168  3.66065312E-09
  1 3 169  3.66065312E-09
  1 3 170  3.66065312E-09
  1 3 171  3.66065312E-09
  1 3 172  3.66065312E-09
  1 3 173  3.66065312E-09
  1 3 174  3.66065312E-09
  1 3 175  3.66065312E-09
  1 3 176  3.66065312E-09
  1 3 177  3.66065312E-09
  1 3 178  3.66065312E-09
  1 3 179  3.66065312E-09
  1 3 180  3.66065312E-09
  1 3 181  3.66065312E-09
  1 3 182  3.66065312E-09
  1 3 183  3.66065312E-09
  1 3 184  3.66065312E-09
  1 3 185  3.66065312E-09
  1 3 186  3.66065312E-09
  1 3 187  3.66065312E-09
  1 3 188  3.66065312E-09
  1 3 189  3.66065312E-09
  1 3 190  3.66065312E-09
  1 3 191  3.66065312E-09
  1 3 192  3.66065312E-09
  1 3 193  3.66065312E-09
  1 3 194  3.66065312E-09
  1 3 195  3.66065312E-09
  1 3 196  3.66065312E-09
  1 3 197  3.66065312E-09
  1 3 198  3.66065312E-09
  1 3 199  3.66065312E-09
  1 3 200  3.66065312E-09
  1 3 201  3.66065312E-09
  1 3 202  3.66065312E-09
  1 3 203  3.66065312E-09
  1 3 204  3.66065312E-09
  1 3 205  3.66065312E-09
  1 3 206  3.66065312E-09
  1 3 207  3.66065312E-09
  1 3 208  3.66065312E-09
  1 3 209  3.66065312E-09
  1 3 210  3.66065312E-09
  1 3 211  3.66065312E-09
  1 3 212  3.66065312E-09
  1 3 213  3.66065312E-09
  1 3 214  3.66065312E-09
  1 3 215  3.66065312E-09
  1 3 216  3.66065312E-09
  1 3 217  3.66065312E-09
  1 3 218  3.66065312E-09
  1 3 219  3.66065312E-09
  1 3 220  3.66065312E-09
  1 3 221  3.66065312E-09
  1 3 222  3.66065312E-09
  1 3 223  3.66065312E-09
  1 3 224  3.66065312E-09
  1 3 225  3.66065312E-09
  1 3 226  3.66065312E-09
  1 3 227  3.66065312E-09
  1 3 228  3.66065312E-09
  1 3 229  3.66065312E-09
  1 3 230  3.66065312E-09
  1 3 231  3.66065312E-09
  1 3 232  3.66065312E-09
  1 3 233  3.66065312E-09
  1 4 143  3.66065312E-09
  1 4 144  3.66065312E-09
  1 4 145  3.66065312E-09
  1 4 146  3.66065312E-09
  1 4 147  3.66065312E-09
  1 4 148  3.66065312E-09
  1 4 149  3.66065312E-09
  1 4 150  3.66065312E-09
  1 4 151  3.66065312E-09
  1 4 152  3.66065312E-09
  1 4 153  3.66065312E-09
  1 4 154  3.66065312E-09
  1 4 155  3.66065312E-09
  1 4 156  3.66065312E-09
  1 4 157  3.66065312E-09
  1 4 158  3.66065312E-09
  1 4 159  3.66065312E-09
  1 4 160  3.66065312E-09
  1 4 161  3.66065312E-09
  1 4 162  3.66065312E-09
  1 4 163  3.66065312E-09
  1 4 164  3.66065312E-09
  1 4 165  3.66065312E-09
  1 4 166  3.66065312E-09
  1 4 167  3.66065312E-09
  1 4 168  3.66065312E-09
  1 4 169  3.66065312E-09
  1 4 170  3.66065312E-09
  1 4 171  3.66065312E-09
  1 4 172  3.66065312E-09
  1 4 173  3.66065312E-09
  1 4 174  3.66065312E-09
  1 4 175  3.66065312E-09
  1 4 176  3.66065312E-09
  1 4 177  3.66065312E-09
  1 4 178  3.66065312E-09
  1 4 179  3.66065312E-09
  1 4 180  3.66065312E-09
  1 4 181  3.66065312E-09
  1 4 182  3.66065312E-09
  1 4 183  3.66065312E-09
  1 4 184  3.66065312E-09
  1 4 185  3.66065312E-09
  1 4 186  3.66065312E-09
  1 4 187  3.66065312E-09
  1 4 188  3.66065312E-09
  1 4 189  3.66065312E-09
  1 4 190  3.66065312E-09
  1 4 191  3.66065312E-09
  1 4 192  3.66065312E-09
  1 4 193  3.66065312E-09
  1 4 194  3.66065312E-09
  1 4 195  3.66065312E-09
  1 4 196  3.66065312E-09
  1 4 197  3.66065312E-09
  1 4 198  3.66065312E-09
  1 4 199  3.66065312E-09
  1 4 200  3.66065312E-09
  1 4 201  3.66065312E-09
  1 4 202  3.66065312E-09
  1 4 203  3.66065312E-09
  1 4 204  3.66065312E-09
  1 4 205  3.66065312E-09
  1 4 206  3.66065312E-09
  1 4 207  3.66065312E-09
  1 4 208  3.66065312E-09
  1 4 209  3.66065312E-09
  1 4 210  3.66065312E-09
  1 4 211  3.66065312E-09
  1 4 212  3.66065312E-09
  1 4 213  3.66065312E-09
  1 4 214  3.66065312E-09
  1 4 215  3.66065312E-09
  1 4 216  3.66065312E-09
  1 4 217  3.66065312E-09
  1 4 218  3.66065312E-09
  1 4 219  3.66065312E-09
  1 4 220  3.66065312E-09
  1 4 221  3.66065312E-09
  1 4 222  3.66065312E-09
  1 4 223  3.66065312E-09
  1 4 224  3.66065312E-09
  1 4 225  3.66065312E-09
  1 4 226  3.66065312E-09
  1 4 227  3.66065312E-09
  1 4 228  3.66065312E-09
  1 4 229  3.66065312E-09
  1 4 230  3.66065312E-09
  1 4 231  3.66065312E-09
  1 4 232  3.66065312E-09
  1 4 233  3.66065312E-09
  1 5 143  3.66065312E-09
  1 5 144  3.66065312E-09
  1 5 145  3.66065312E-09
  1 5 146  3.66065312E-09
  1 5 147  3.66065312E-09
  1 5 148  3.66065312E-09
  1 5 149  3.66065312E-09
  1 5 150  3.66065312E-09
  1 5 151  3.66065312E-09
  1 5 152  3.66065312E-09
  1 5 153  3.66065312E-09
  1 5 154  3.66065312E-09
  1 5 155  3.66065312E-09
  1 5 156  3.66065312E-09
  1 5 157  3.66065312E-09
  1 5 158  3.66065312E-09
  1 5 159  3.66065312E-09
  1 5 160  3.66065312E-09
  1 5 161  3.66065312E-09
  1 5 162  3.66065312E-09
  1 5 163  3.66065312E-09
  1 5 164  3.66065312E-09
  1 5 165  3.66065312E-09
  1 5 166  3.66065312E-09
  1 5 167  3.66065312E-09
  1 5 168  3.66065312E-09
  1 5 169  3.66065312E-09
  1 5 170  3.66065312E-09
  1 5 171  3.66065312E-09
  1 5 172  3.66065312E-09
  1 5 173  3.66065312E-09
  1 5 174  3.66065312E-09
  1 5 175  3.66065312E-09
  1 5 176  3.66065312E-09
  1 5 177  3.66065312E-09
  1 5 178  3.66065312E-09
  1 5 179  3.66065312E-09
  1 5 180  3.66065312E-09
  1 5 181  3.66065312E-09
  1 5 182  3.66065312E-09
  1 5 183  3.66065312E-09
  1 5 184  3.66065312E-09
  1 5 185  3.66065312E-09
  1 5 186  3.66065312E-09
  1 5 187  3.66065312E-09
  1 5 188  3.66065312E-09
  1 5 189  3.66065312E-09
  1 5 190  3.66065312E-09
  1 5 191  3.66065312E-09
  1 5 192  3.66065312E-09
  1 5 193  3.66065312E-09
  1 5 194  3.66065312E-09
  1 5 195  3.66065312E-09
  1 5 196  3.66065312E-09
  1 5 197  3.66065312E-09
  1 5 198  3.66065312E-09
  1 5 199  3.66065312E-09
  1 5 200  3.66065312E-09
  1 5 201  3.66065312E-09
  1 5 202  3.66065312E-09
  1 5 203  3.66065312E-09
  1 5 204  3.66065312E-09
  1 5 205  3.66065312E-09
  1 5 206  3.66065312E-09
  1 5 207  3.66065312E-09
  1 5 208  3.66065312E-09
  1 5 209  3.66065312E-09
  1 5 210  3.66065312E-09
  1 5 211  3.66065312E-09
  1 5 212  3.66065312E-09
  1 5 213  3.66065312E-09
  1 5 214  3.66065312E-09
  1 5 215  3.66065312E-09
  1 5 216  3.66065312E-09
  1 5 217  3.66065312E-09
  1 5 218  3.66065312E-09
  1 5 219  3.66065312E-09
  1 5 220  3.66065312E-09
  1 5 221  3.66065312E-09
  1 5 222  3.66065312E-09
  1 5 223  3.66065312E-09
  1 5 224  3.66065312E-09
  1 5 225  3.66065312E-09
  1 5 226  3.66065312E-09
  1 5 227  3.66065312E-09
  1 5 228  3.66065312E-09
  1 5 229  3.66065312E-09
  1 5 230  3.66065312E-09
  1 5 231  3.66065312E-09
  1 5 232  3.66065312E-09
  1 5 233  3.66065312E-09
  1 6 142  3.66065312E-09
  1 6 143  3.66065312E-09
  1 6 144  3.66065312E-09
  1 6 145  3.66065312E-09
  1 6 146  3.66065312E-09
  1 6 147  3.66065312E-09
  1 6 148  3.66065312E-09
  1 6 149  3.66065312E-09
  1 6 150  3.66065312E-09
  1 6 151  3.66065312E-09
  1 6 152  3.66065312E-09
  1 6 153  3.66065312E-09
  1 6 154  3.66065312E-09
  1 6 155  3.66065312E-09
  1 6 156  3.66065312E-09
  1 6 157  3.66065312E-09
  1 6 158  3.66065312E-09
  1 6 159  3.66065312E-09
  1 6 160  3.66065312E-09
  1 6 161  3.66065312E-09
  1 6 162  3.66065312E-09
  1 6 163  3.66065312E-09
  1 6 164  3.66065312E-09
  1 6 165  3.66065312E-09
  1 6 166  3.66065312E-09
  1 6 167  3.66065312E-09
  1 6 168  3.66065312E-09
  1 6 169  3.66065312E-09
  1 6 170  3.66065312E-09
  1 6 171  3.66065312E-09
  1 6 172  3.66065312E-09
  1 6 173  3.66065312E-09
  1 6 174  3.66065312E-09
  1 6 175  3.66065312E-09
  1 6 176  3.66065312E-09
  1 6 177  3.66065312E-09
  1 6 178  3.66065312E-09
  1 6 179  3.66065312E-09
  1 6 180  3.66065312E-09
  1 6 181  3.66065312E-09
  1 6 182  3.66065312E-09
  1 6 183  3.66065312E-09
  1 6 184  3.66065312E-09
  1 6 185  3.66065312E-09
  1 6 186  3.66065312E-09
  1 6 187  3.66065312E-09
  1 6 188  3.66065312E-09
  1 6 189  3.66065312E-09
  1 6 190  3.66065312E-09
  1 6 191  3.66065312E-09
  1 6 192  3.66065312E-09
  1 6 193  3.66065312E-09
  1 6 194  3.66065312E-09
  1 6 195  3.66065312E-09
  1 6 196  3.66065312E-09
  1 6 197  3.66065312E-09
  1 6 198  3.66065312E-09
  1 6 199  3.66065312E-09
  1 6 200  3.66065312E-09
  1 6 201  3.66065312E-09
  1 6 202  3.66065312E-09
  1 6 203  3.66065312E-09
  1 6 204  3.66065312E-09
  1 6 205  3.66065312E-09
  1 6 206  3.66065312E-09
  1 6 207  3.66065312E-09
  1 6 208  3.66065312E-09
  1 6 209  3.66065312E-09
  1 6 210  3.66065312E-09
  1 6 211  3.66065312E-09
  1 6 212  3.66065312E-09
  1 6 213  3.66065312E-09
  1 6 214  3.66065312E-09
  1 6 215  3.66065312E-09
  1 6 216  3.66065312E-09
  1 6 217  3.66065312E-09
  1 6 218  3.66065312E-09
  1 6 219  3.66065312E-09
  1 6 220  3.66065312E-09
  1 6 221  3.66065312E-09
  1 6 222  3.66065312E-09
  1 6 223  3.66065312E-09
  1 6 224  3.66065312E-09
  1 6 225  3.66065312E-09
  1 6 226  3.66065312E-09
  1 6 227  3.66065312E-09
  1 6 228  3.66065312E-09
  1 6 229  3.66065312E-09
  1 6 230  3.66065312E-09
  1 6 231  3.66065312E-09
  1 6 232  3.66065312E-09
  1 6 233  3.66065312E-09
  1 7 142  3.66065312E-09
  1 7 143  3.66065312E-09
  1 7 144  3.66065312E-09
  1 7 145  3.66065312E-09
  1 7 146  3.66065312E-09
  1 7 147  3.66065312E-09
  1 7 148  3.66065312E-09
  1 7 149  3.66065312E-09
  1 7 150  3.66065312E-09
  1 7 151  3.66065312E-09
  1 7 152  3.66065312E-09
  1 7 153  3.66065312E-09
  1 7 154  3.66065312E-09
  1 7 155  3.66065312E-09
  1 7 156  3.66065312E-09
  1 7 157  3.66065312E-09
  1 7 158  3.66065312E-09
  1 7 159  3.66065312E-09
  1 7 160  3.66065312E-09
  1 7 161  3.66065312E-09
  1 7 162  3.66065312E-09
  1 7 163  3.66065312E-09
  1 7 164  3.66065312E-09
  1 7 165  3.66065312E-09
  1 7 166  3.66065312E-09
  1 7 167  3.66065312E-09
  1 7 168  3.66065312E-09
  1 7 169  3.66065312E-09
  1 7 170  3.66065312E-09
  1 7 171  3.66065312E-09
  1 7 172  3.66065312E-09
  1 7 173  3.66065312E-09
  1 7 174  3.66065312E-09
  1 7 175  3.66065312E-09
  1 7 176  3.66065312E-09
  1 7 177  3.66065312E-09
  1 7 178  3.66065312E-09
  1 7 179  3.66065312E-09
  1 7 180  3.66065312E-09
  1 7 181  3.66065312E-09
  1 7 182  3.66065312E-09
  1 7 183  3.66065312E-09
  1 7 184  3.66065312E-09
  1 7 185  3.66065312E-09
  1 7 186  3.66065312E-09
  1 7 187  3.66065312E-09
  1 7 188  3.66065312E-09
  1 7 189  3.66065312E-09
  1 7 190  3.66065312E-09
  1 7 191  3.66065312E-09
  1 7 192  3.66065312E-09
  1 7 193  3.66065312E-09
  1 7 194  3.66065312E-09
  1 7 195  3.66065312E-09
  1 7 196  3.66065312E-09
  1 7 197  3.66065312E-09
  1 7 198  3.66065312E-09
  1 7 199  3.66065312E-09
  1 7 200  3.66065312E-09
  1 7 201  3.66065312E-09
  1 7 202  3.66065312E-09
  1 7 203  3.66065312E-09
  1 7 204  3.66065312E-09
  1 7 205  3.66065312E-09
  1 7 206  3.66065312E-09
  1 7 207  3.66065312E-09
  1 7 208  3.66065312E-09
  1 7 209  3.66065312E-09
  1 7 210  3.66065312E-09
  1 7 211  3.66065312E-09
  1 7 212  3.66065312E-09
  1 7 213  3.66065312E-09
  1 7 214  3.66065312E-09
  1 7 215  3.66065312E-09
  1 7 216  3.66065312E-09
  1 7 217  3.66065312E-09
  1 7 218  3.66065312E-09
  1 7 219  3.66065312E-09
  1 7 220  3.66065312E-09
  1 7 221  3.66065312E-09
  1 7 222  3.66065312E-09
  1 7 223  3.66065312E-09
  1 7 224  3.66065312E-09
  1 7 225  3.66065312E-09
  1 7 226  3.66065312E-09
  1 7 227  3.66065312E-09
  1 7 228  3.66065312E-09
  1 7 229  3.66065312E-09
  1 7 230  3.66065312E-09
  1 7 231  3.66065312E-09
  1 7 232  3.66065312E-09
  1 7 233  3.66065312E-09
  1 8 141  3.66065312E-09
  1 8 142  3.66065312E-09
  1 8 143  3.66065312E-09
  1 8 144  3.66065312E-09
  1 8 145  3.66065312E-09
  1 8 146  3.66065312E-09
  1 8 147  3.66065312E-09
  1 8 148  3.66065312E-09
  1 8 149  3.66065312E-09
  1 8 150  3.66065312E-09
  1 8 151  3.66065312E-09
  1 8 152  3.66065312E-09
  1 8 153  3.66065312E-09
  1 8 154  3.66065312E-09
  1 8 155  3.66065312E-09
  1 8 156  3.66065312E-09
  1 8 157  3.66065312E-09
  1 8 158  3.66065312E-09
  1 8 159  3.66065312E-09
  1 8 160  3.66065312E-09
  1 8 161  3.66065312E-09
  1 8 162  3.66065312E-09
  1 8 163  3.66065312E-09
  1 8 164  3.66065312E-09
  1 8 165  3.66065312E-09
  1 8 166  3.66065312E-09
  1 8 167  3.66065312E-09
  1 8 168  3.66065312E-09
  1 8 169  3.66065312E-09
  1 8 170  3.66065312E-09
  1 8 171  3.66065312E-09
  1 8 172  3.66065312E-09
  1 8 173  3.66065312E-09
  1 8 174  3.66065312E-09
  1 8 175  3.66065312E-09
  1 8 176  3.66065312E-09
  1 8 177  3.66065312E-09
  1 8 178  3.66065312E-09
  1 8 179  3.66065312E-09
  1 8 180  3.66065312E-09
  1 8 181  3.66065312E-09
  1 8 182  3.66065312E-09
  1 8 183  3.66065312E-09
  1 8 184  3.66065312E-09
  1 8 185  3.66065312E-09
  1 8 186  3.66065312E-09
  1 8 187  3.66065312E-09
  1 8 188  3.66065312E-09
  1 8 189  3.66065312E-09
  1 8 190  3.66065312E-09
  1 8 191  3.66065312E-09
  1 8 192  3.66065312E-09
  1 8 193  3.66065312E-09
  1 8 194  3.66065312E-09
  1 8 195  3.66065312E-09
  1 8 196  3.66065312E-09
  1 8 197  3.66065312E-09
  1 8 198  3.66065312E-09
  1 8 199  3.66065312E-09
  1 8 200  3.66065312E-09
  1 8 201  3.66065312E-09
  1 8 202  3.66065312E-09
  1 8 203  3.66065312E-09
  1 8 204  3.66065312E-09
  1 8 205  3.66065312E-09
  1 8 206  3.66065312E-09
  1 8 207  3.66065312E-09
  1 8 208  3.66065312E-09
  1 8 209  3.66065312E-09
  1 8 210  3.66065312E-09
  1 8 211  3.66065312E-09
  1 8 212  3.66065312E-09
  1 8 213  3.66065312E-09
  1 8 214  3.66065312E-09
  1 8 215  3.66065312E-09
  1 8 216  3.66065312E-09
  1 8 217  3.66065312E-09
  1 8 218  3.66065312E-09
  1 8 219  3.66065312E-09
  1 8 220  3.66065312E-09
  1 8 221  3.66065312E-09
  1 8 222  3.66065312E-09
  1 8 223  3.66065312E-09
  1 8 224  3.66065312E-09
  1 8 225  3.66065312E-09
  1 8 226  3.66065312E-09
  1 8 227  3.66065312E-09
  1 8 228  3.66065312E-09
  1 8 229  3.66065312E-09
  1 8 230  3.66065312E-09
  1 8 231  3.66065312E-09
  1 8 232  3.66065312E-09
  1 8 233  3.66065312E-09
  1 9 141  3.66065312E-09
  1 9 142  3.66065312E-09
  1 9 143  3.66065312E-09
  1 9 144  3.66065312E-09
  1 9 145  3.66065312E-09
  1 9 146  3.66065312E-09
  1 9 147  3.66065312E-09
  1 9 148  3.66065312E-09
  1 9 149  3.66065312E-09
  1 9 150  3.66065312E-09
  1 9 151  3.66065312E-09
  1 9 152  3.66065312E-09
  1 9 153  3.66065312E-09
  1 9 154  3.66065312E-09
  1 9 155  3.66065312E-09
  1 9 156  3.66065312E-09
  1 9 157  3.66065312E-09
  1 9 158  3.66065312E-09
  1 9 159  3.66065312E-09
  1 9 160  3.66065312E-09
  1 9 161  3.66065312E-09
  1 9 162  3.66065312E-09
  1 9 163  3.66065312E-09
  1 9 164  3.66065312E-09
  1 9 165  3.66065312E-09
  1 9 166  3.66065312E-09
  1 9 167  3.66065312E-09
  1 9 168  3.66065312E-09
  1 9 169  3.66065312E-09
  1 9 170  3.66065312E-09
  1 9 171  3.66065312E-09
  1 9 172  3.66065312E-09
  1 9 173  3.66065312E-09
  1 9 174  3.66065312E-09
  1 9 175  3.66065312E-09
  1 9 176  3.66065312E-09
  1 9 177  3.66065312E-09
  1 9 178  3.66065312E-09
  1 9 179  3.66065312E-09
  1 9 180  3.66065312E-09
  1 9 181  3.66065312E-09
  1 9 182  3.66065312E-09
  1 9 183  3.66065312E-09
  1 9 184  3.66065312E-09
  1 9 185  3.66065312E-09
  1 9 186  3.66065312E-09
  1 9 187  3.66065312E-09
  1 9 188  3.66065312E-09
  1 9 189  3.66065312E-09
  1 9 190  3.66065312E-09
  1 9 191  3.66065312E-09
  1 9 192  3.66065312E-09
  1 9 193  3.66065312E-09
  1 9 194  3.66065312E-09
  1 9 195  3.66065312E-09
  1 9 196  3.66065312E-09
  1 9 197  3.66065312E-09
  1 9 198  3.66065312E-09
  1 9 199  3.66065312E-09
  1 9 200  3.66065312E-09
  1 9 201  3.66065312E-09
  1 9 202  3.66065312E-09
  1 9 203  3.66065312E-09
  1 9 204  3.66065312E-09
  1 9 205  3.66065312E-09
  1 9 206  3.66065312E-09
  1 9 207  3.66065312E-09
  1 9 208  3.66065312E-09
  1 9 209  3.66065312E-09
  1 9 210  3.66065312E-09
  1 9 211  3.66065312E-09
  1 9 212  3.66065312E-09
  1 9 213  3.66065312E-09
  1 9 214  3.66065312E-09
  1 9 215  3.66065312E-09
  1 9 216  3.66065312E-09
  1 9 217  3.66065312E-09
  1 9 218  3.66065312E-09
  1 9 219  3.66065312E-09
  1 9 220  3.66065312E-09
  1 9 221  3.66065312E-09
  1 9 222  3.66065312E-09
  1 9 223  3.66065312E-09
  1 9 224  3.66065312E-09
  1 9 225  3.66065312E-09
  1 9 226  3.66065312E-09
  1 9 227  3.66065312E-09
  1 9 228  3.66065312E-09
  1 9 229  3.66065312E-09
  1 9 230  3.66065312E-09
  1 9 231  3.66065312E-09
  1 9 232  3.66065312E-09
  1 9 233  3.66065312E-09
  1 10 141  3.66065312E-09
  1 10 142  3.66065312E-09
  1 10 143  3.66065312E-09
  1 10 144  3.66065312E-09
  1 10 145  3.66065312E-09
  1 10 146  3.66065312E-09
  1 10 147  3.66065312E-09
  1 10 148  3.66065312E-09
  1 10 149  3.66065312E-09
  1 10 150  3.66065312E-09
  1 10 151  3.66065312E-09
  1 10 152  3.66065312E-09
  1 10 153  3.66065312E-09
  1 10 154  3.66065312E-09
  1 10 155  3.66065312E-09
  1 10 156  3.66065312E-09
  1 10 157  3.66065312E-09
  1 10 158  3.66065312E-09
  1 10 159  3.66065312E-09
  1 10 160  3.66065312E-09
  1 10 161  3.66065312E-09
  1 10 162  3.66065312E-09
  1 10 163  3.66065312E-09
  1 10 164  3.66065312E-09
  1 10 165  3.66065312E-09
  1 10 166  3.66065312E-09
  1 10 167  3.66065312E-09
  1 10 168  3.66065312E-09
  1 10 169  3.66065312E-09
  1 10 170  3.66065312E-09
  1 10 171  3.66065312E-09
  1 10 172  3.66065312E-09
  1 10 173  3.66065312E-09
  1 10 174  3.66065312E-09
  1 10 175  3.66065312E-09
  1 10 176  3.66065312E-09
  1 10 177  3.66065312E-09
  1 10 178  3.66065312E-09
  1 10 179  3.66065312E-09
  1 10 180  3.66065312E-09
  1 10 181  3.66065312E-09
  1 10 182  3.66065312E-09
  1 10 183  3.66065312E-09
  1 10 184  3.66065312E-09
  1 10 185  3.66065312E-09
  1 10 186  3.66065312E-09
  1 10 187  3.66065312E-09
  1 10 188  3.66065312E-09
  1 10 189  3.66065312E-09
  1 10 190  3.66065312E-09
  1 10 191  3.66065312E-09
  1 10 192  3.66065312E-09
  1 10 193  3.66065312E-09
  1 10 194  3.66065312E-09
  1 10 195  3.66065312E-09
  1 10 196  3.66065312E-09
  1 10 197  3.66065312E-09
  1 10 198  3.66065312E-09
  1 10 199  3.66065312E-09
  1 10 200  3.66065312E-09
  1 10 201  3.66065312E-09
  1 10 202  3.66065312E-09
  1 10 203  3.66065312E-09
  1 10 204  3.66065312E-09
  1 10 205  3.66065312E-09
  1 10 206  3.66065312E-09
  1 10 207  3.66065312E-09
  1 10 208  3.66065312E-09
  1 10 209  3.66065312E-09
  1 10 210  3.66065312E-09
  1 10 211  3.66065312E-09
  1 10 212  3.66065312E-09
  1 10 213  3.66065312E-09
  1 10 214  3.66065312E-09
  1 10 215  3.66065312E-09
  1 10 216  3.66065312E-09
  1 10 217  3.66065312E-09
  1 10 218  3.66065312E-09
  1 10 219  3.66065312E-09
  1 10 220  3.66065312E-09
  1 10 221  3.66065312E-09
  1 10 222  3.66065312E-09
  1 10 223  3.66065312E-09
  1 10 224  3.66065312E-09
  1 10 225  3.66065312E-09
  1 10 226  3.66065312E-09
  1 10 227  3.66065312E-09
  1 10 228  3.66065312E-09
  1 10 229  3.66065312E-09
  1 10 230  3.66065312E-09
  1 10 231  3.66065312E-09
  1 10 232  3.66065312E-09
  1 10 233  3.66065312E-09
  1 11 140  3.66065312E-09
  1 11 141  3.66065312E-09
  1 11 142  3.66065312E-09
  1 11 143  3.66065312E-09
  1 11 144  3.66065312E-09
  1 11 145  3.66065312E-09
  1 11 146  3.66065312E-09
  1 11 147  3.66065312E-09
  1 11 148  3.66065312E-09
  1 11 149  3.66065312E-09
  1 11 150  3.66065312E-09
  1 11 151  3.66065312E-09
  1 11 152  3.66065312E-09
  1 11 153  3.66065312E-09
  1 11 154  3.66065312E-09
  1 11 155  3.66065312E-09
  1 11 156  3.66065312E-09
  1 11 157  3.66065312E-09
  1 11 158  3.66065312E-09
  1 11 159  3.66065312E-09
  1 11 160  3.66065312E-09
  1 11 161  3.66065312E-09
  1 11 162  3.66065312E-09
  1 11 163  3.66065312E-09
  1 11 164  3.66065312E-09
  1 11 165  3.66065312E-09
  1 11 166  3.66065312E-09
  1 11 167  3.66065312E-09
  1 11 168  3.66065312E-09
  1 11 169  3.66065312E-09
  1 11 170  3.66065312E-09
  1 11 171  3.66065312E-09
  1 11 172  3.66065312E-09
  1 11 173  3.66065312E-09
  1 11 174  3.66065312E-09
  1 11 175  3.66065312E-09
  1 11 176  3.66065312E-09
  1 11 177  3.66065312E-09
  1 11 178  3.66065312E-09
  1 11 179  3.66065312E-09
  1 11 180  3.66065312E-09
  1 11 181  3.66065312E-09
  1 11 182  3.66065312E-09
  1 11 183  3.66065312E-09
  1 11 184  3.66065312E-09
  1 11 185  3.66065312E-09
  1 11 186  3.66065312E-09
  1 11 187  3.66065312E-09
  1 11 188  3.66065312E-09
  1 11 189  3.66065312E-09
  1 11 190  3.66065312E-09
  1 11 191  3.66065312E-09
  1 11 192  3.66065312E-09
  1 11 193  3.66065312E-09
  1 11 194  3.66065312E-09
  1 11 195  3.66065312E-09
  1 11 196  3.66065312E-09
  1 11 197  3.66065312E-09
  1 11 198  3.66065312E-09
  1 11 199  3.66065312E-09
  1 11 200  3.66065312E-09
  1 11 201  3.66065312E-09
  1 11 202  3.66065312E-09
  1 11 203  3.66065312E-09
  1 11 204  3.66065312E-09
  1 11 205  3.66065312E-09
  1 11 206  3.66065312E-09
  1 11 207  3.66065312E-09
  1 11 208  3.66065312E-09
  1 11 209  3.66065312E-09
  1 11 210  3.66065312E-09
  1 11 211  3.66065312E-09
  1 11 212  3.66065312E-09
  1 11 213  3.66065312E-09
  1 11 214  3.66065312E-09
  1 11 215  3.66065312E-09
  1 11 216  3.66065312E-09
  1 11 217  3.66065312E-09
  1 11 218  3.66065312E-09
  1 11 219  3.66065312E-09
  1 11 220  3.66065312E-09
  1 11 221  3.66065312E-09
  1 11 222  3.66065312E-09
  1 11 223  3.66065312E-09
  1 11 224  3.66065312E-09
  1 11 225  3.66065312E-09
  1 11 226  3.66065312E-09
  1 11 227  3.66065312E-09
  1 11 228  3.66065312E-09
  1 11 229  3.66065312E-09
  1 11 230  3.66065312E-09
  1 11 231  3.66065312E-09
  1 11 232  3.66065312E-09
  1 11 233  3.66065312E-09
  1 12 140  3.66065312E-09
  1 12 141  3.66065312E-09
  1 12 142  3.66065312E-09
  1 12 143  3.66065312E-09
  1 12 144  3.66065312E-09
  1 12 145  3.66065312E-09
  1 12 146  3.66065312E-09
  1 12 147  3.66065312E-09
  1 12 148  3.66065312E-09
  1 12 149  3.66065312E-09
  1 12 150  3.66065312E-09
  1 12 151  3.66065312E-09
  1 12 152  3.66065312E-09
  1 12 153  3.66065312E-09
  1 12 154  3.66065312E-09
  1 12 155  3.66065312E-09
  1 12 156  3.66065312E-09
  1 12 157  3.66065312E-09
  1 12 158  3.66065312E-09
  1 12 159  3.66065312E-09
  1 12 160  3.66065312E-09
  1 12 161  3.66065312E-09
  1 12 162  3.66065312E-09
  1 12 163  3.66065312E-09
  1 12 164  3.66065312E-09
  1 12 165  3.66065312E-09
  1 12 166  3.66065312E-09
  1 12 167  3.66065312E-09
  1 12 168  3.66065312E-09
  1 12 169  3.66065312E-09
  1 12 170  3.66065312E-09
  1 12 171  3.66065312E-09
  1 12 172  3.66065312E-09
  1 12 173  3.66065312E-09
  1 12 174  3.66065312E-09
  1 12 175  3.66065312E-09
  1 12 176  3.66065312E-09
  1 12 177  3.66065312E-09
  1 12 178  3.66065312E-09
  1 12 179  3.66065312E-09
  1 12 180  3.66065312E-09
  1 12 181  3.66065312E-09
  1 12 182  3.66065312E-09
  1 12 183  3.66065312E-09
  1 12 184  3.66065312E-09
  1 12 185  3.66065312E-09
  1 12 186  3.66065312E-09
  1 12 187  3.66065312E-09
  1 12 188  3.66065312E-09
  1 12 189  3.66065312E-09
  1 12 190  3.66065312E-09
  1 12 191  3.66065312E-09
  1 12 192  3.66065312E-09
  1 12 193  3.66065312E-09
  1 12 194  3.66065312E-09
  1 12 195  3.66065312E-09
  1 12 196  3.66065312E-09
  1 12 197  3.66065312E-09
  1 12 198  3.66065312E-09
  1 12 199  3.66065312E-09
  1 12 200  3.66065312E-09
  1 12 201  3.66065312E-09
  1 12 202  3.66065312E-09
  1 12 203  3.66065312E-09
  1 12 204  3.66065312E-09
  1 12 205  3.66065312E-09
  1 12 206  3.66065312E-09
  1 12 207  3.66065312E-09
  1 12 208  3.66065312E-09
  1 12 209  3.66065312E-09
  1 12 210  3.66065312E-09
  1 12 211  3.66065312E-09
  1 12 212  3.66065312E-09
  1 12 213  3.66065312E-09
  1 12 214  3.66065312E-09
  1 12 215  3.66065312E-09
  1 12 216  3.66065312E-09
  1 12 217  3.66065312E-09
  1 12 218  3.66065312E-09
  1 12 219  3.66065312E-09
  1 12 220  3.66065312E-09
  1 12 221  3.66065312E-09
  1 12 222  3.66065312E-09
  1 12 223  3.66065312E-09
  1 12 224  3.66065312E-09
  1 12 225  3.66065312E-09
  1 12 226  3.66065312E-09
  1 12 227  3.66065312E-09
  1 12 228  3.66065312E-09
  1 12 229  3.66065312E-09
  1 12 230  3.66065312E-09
  1 12 231  3.66065312E-09
  1 12 232  3.66065312E-09
  1 12 233  3.66065312E-09
  2 13 125  3.66065312E-09
  2 13 126  3.66065312E-09
  2 13 127  3.66065312E-09
  1 13 139  3.66065312E-09
  1 13 140  3.66065312E-09
  1 13 141  3.66065312E-09
  1 13 142  3.66065312E-09
  1 13 143  3.66065312E-09
  1 13 144  3.66065312E-09
  1 13 145  3.66065312E-09
  1 13 146  3.66065312E-09
  1 13 147  3.66065312E-09
  1 13 148  3.66065312E-09
  1 13 149  3.66065312E-09
  1 13 150  3.66065312E-09
  1 13 151  3.66065312E-09
  1 13 152  3.66065312E-09
  1 13 153  3.66065312E-09
  1 13 154  3.66065312E-09
  1 13 155  3.66065312E-09
  1 13 156  3.66065312E-09
  1 13 157  3.66065312E-09
  1 13 158  3.66065312E-09
  1 13 159  3.66065312E-09
  1 13 160  3.66065312E-09
  1 13 161  3.66065312E-09
  1 13 162  3.66065312E-09
  1 13 163  3.66065312E-09
  1 13 164  3.66065312E-09
  1 13 165  3.66065312E-09
  1 13 166  3.66065312E-09
  1 13 167  3.66065312E-09
  1 13 168  3.66065312E-09
  1 13 169  3.66065312E-09
  1 13 170  3.66065312E-09
  1 13 171  3.66065312E-09
  1 13 172  3.66065312E-09
  1 13 173  3.66065312E-09
  1 13 174  3.66065312E-09
  1 13 175  3.66065312E-09
  1 13 176  3.66065312E-09
  1 13 177  3.66065312E-09
  1 13 178  3.66065312E-09
  1 13 179  3.66065312E-09
  1 13 180  3.66065312E-09
  1 13 181  3.66065312E-09
  1 13 182  3.66065312E-09
  1 13 183  3.66065312E-09
  1 13 184  3.66065312E-09
  1 13 185  3.66065312E-09
  1 13 186  3.66065312E-09
  1 13 187  3.66065312E-09
  1 13 188  3.66065312E-09
  1 13 189  3.66065312E-09
  1 13 190  3.66065312E-09
  1 13 191  3.66065312E-09
  1 13 192  3.66065312E-09
  1 13 193  3.66065312E-09
  1 13 194  3.66065312E-09
  1 13 195  3.66065312E-09
  1 13 196  3.66065312E-09
  1 13 197  3.66065312E-09
  1 13 198  3.66065312E-09
  1 13 199  3.66065312E-09
  1 13 200  3.66065312E-09
  1 13 201  3.66065312E-09
  1 13 202  3.66065312E-09
  1 13 203  3.66065312E-09
  1 13 204  3.66065312E-09
  1 13 205  3.66065312E-09
  1 13 206  3.66065312E-09
  1 13 207  3.66065312E-09
  1 13 208  3.66065312E-09
  1 13 209  3.66065312E-09
  1 13 210  3.66065312E-09
  1 13 211  3.66065312E-09
  1 13 212  3.66065312E-09
  1 13 213  3.66065312E-09
  1 13 214  3.66065312E-09
  1 13 215  3.66065312E-09
  1 13 216  3.66065312E-09
  1 13 217  3.66065312E-09
  1 13 218  3.66065312E-09
  1 13 219  3.66065312E-09
  1 13 220  3.66065312E-09
  1 13 221  3.66065312E-09
  1 13 222  3.66065312E-09
  1 13 223  3.66065312E-09
  1 13 224  3.66065312E-09
  1 13 225  3.66065312E-09
  1 13 226  3.66065312E-09
  1 13 227  3.66065312E-09
  1 13 228  3.66065312E-09
  1 13 229  3.66065312E-09
  1 13 230  3.66065312E-09
  1 13 231  3.66065312E-09
  1 13 232  3.66065312E-09
  1 13 233  3.66065312E-09
  3 14 123  3.66065312E-09
  2 14 124  3.66065312E-09
  2 14 125  3.66065312E-09
  2 14 126  3.66065312E-09
  2 14 127  3.66065312E-09
  2 14 128  3.66065312E-09
  2 14 129  3.66065312E-09
  1 14 139  3.66065312E-09
  1 14 140  3.66065312E-09
  1 14 141  3.66065312E-09
  1 14 142  3.66065312E-09
  1 14 143  3.66065312E-09
  1 14 144  3.66065312E-09
  1 14 145  3.66065312E-09
  1 14 146  3.66065312E-09
  1 14 147  3.66065312E-09
  1 14 148  3.66065312E-09
  1 14 149  3.66065312E-09
  1 14 150  3.66065312E-09
  1 14 151  3.66065312E-09
  1 14 152  3.66065312E-09
  1 14 153  3.66065312E-09