BEGIN options
  XORIGIN  6.64550000E+05
  YORIGIN  6.15285000E+06
END options

BEGIN dimensions
  NLAY  3
  NROW  182
  NCOL  234
END dimensions

BEGIN griddata
  delr
    INTERNAL  FACTOR  1.0
       300.00000000     300.00000000     300.00000000     300.00000000     300.00000000     300.00000000     300.00000000     300.00000000     300.00000000     300.00000000     300.00000000     300.00000000     300.00000000     300.00000000     300.00000000     300.00000000     300.00000000     300.00000000     300.00000000     300.00000000
       300.00000000     300.00000000     300.00000000     300.00000000     300.00000000     300.00000000     300.00000000     300.00000000     300.00000000     300.00000000     300.00000000     300.00000000     300.00000000     300.00000000     300.00000000     300.00000000     300.00000000     300.00000000     300.00000000     300.00000000
       300.00000000     300.00000000     300.00000000     300.00000000     300.00000000     300.00000000     300.00000000     300.00000000     300.00000000     300.00000000     300.00000000     300.00000000     300.00000000     300.00000000     300.00000000     300.00000000     300.00000000     300.00000000     300.00000000     300.00000000
       300.00000000     300.00000000     300.00000000     300.00000000     300.00000000     300.00000000     300.00000000     300.00000000     300.00000000     300.00000000     300.00000000     300.00000000     300.00000000     300.00000000     300.00000000     300.00000000     300.00000000     300.00000000     300.00000000     300.00000000
       300.00000000     300.00000000     300.00000000     300.00000000     300.00000000     300.00000000     300.00000000     300.00000000     300.00000000     300.00000000     300.00000000     300.00000000     300.00000000     300.00000000     300.00000000     300.00000000     300.00000000     300.00000000     300.00000000     300.00000000
       300.00000000     300.00000000     300.00000000     300.00000000     300.00000000     300.00000000     300.00000000     300.00000000     300.00000000     300.00000000     300.00000000     300.00000000     300.00000000     300.00000000     300.00000000     300.00000000     300.00000000     300.00000000     300.00000000     300.00000000
       300.00000000     300.00000000     300.00000000     300.00000000     300.00000000     300.00000000     300.00000000     300.00000000     300.00000000     300.00000000     300.00000000     300.00000000     300.00000000     300.00000000     300.00000000     300.00000000     300.00000000     300.00000000     300.00000000     300.00000000
       300.00000000     300.00000000     300.00000000     300.00000000     300.00000000     300.00000000     300.00000000     300.00000000     300.00000000     300.00000000     300.00000000     300.00000000     300.00000000     300.00000000     300.00000000     300.00000000     300.00000000     300.00000000     300.00000000     300.00000000
       300.00000000     300.00000000     300.00000000     300.00000000     300.00000000     300.00000000     300.00000000     300.00000000     300.00000000     300.00000000     300.00000000     300.00000000     300.00000000     300.00000000     300.00000000     300.00000000     300.00000000     300.00000000     300.00000000     300.00000000
       300.00000000     300.00000000     300.00000000     300.00000000     300.00000000     300.00000000     300.00000000     300.00000000     300.00000000     300.00000000     300.00000000     300.00000000     300.00000000     300.00000000     300.00000000     300.00000000     300.00000000     300.00000000     300.00000000     300.00000000
       300.00000000     300.00000000     300.00000000     300.00000000     300.00000000     300.00000000     300.00000000     300.00000000     300.00000000     300.00000000     300.00000000     300.00000000     300.00000000     300.00000000     300.00000000     300.00000000     300.00000000     300.00000000     300.00000000     300.00000000
       300.00000000     300.00000000     300.00000000     300.00000000     300.00000000     300.00000000     300.00000000     300.00000000     300.00000000     300.00000000     300.00000000     300.00000000     300.00000000     300.00000000
  delc
    INTERNAL  FACTOR  1.0
       300.00000000     300.00000000     300.00000000     300.00000000     300.00000000     300.00000000     300.00000000     300.00000000     300.00000000     300.00000000     300.00000000     300.00000000     300.00000000     300.00000000     300.00000000     300.00000000     300.00000000     300.00000000     300.00000000     300.00000000
       300.00000000     300.00000000     300.00000000     300.00000000     300.00000000     300.00000000     300.00000000     300.00000000     300.00000000     300.00000000     300.00000000     300.00000000     300.00000000     300.00000000     300.00000000     300.00000000     300.00000000     300.00000000     300.00000000     300.00000000
       300.00000000     300.00000000     300.00000000     300.00000000     300.00000000     300.00000000     300.00000000     300.00000000     300.00000000     300.00000000     300.00000000     300.00000000     300.00000000     300.00000000     300.00000000     300.00000000     300.00000000     300.00000000     300.00000000     300.00000000
       300.00000000     300.00000000     300.00000000     300.00000000     300.00000000     300.00000000     300.00000000     300.00000000     300.00000000     300.00000000     300.00000000     300.00000000     300.00000000     300.00000000     300.00000000     300.00000000     300.00000000     300.00000000     300.00000000     300.00000000
       300.00000000     300.00000000     300.00000000     300.00000000     300.00000000     300.00000000     300.00000000     300.00000000     300.00000000     300.00000000     300.00000000     300.00000000     300.00000000     300.00000000     300.00000000     300.00000000     300.00000000     300.00000000     300.00000000     300.00000000
       300.00000000     300.00000000     300.00000000     300.00000000     300.00000000     300.00000000     300.00000000     300.00000000     300.00000000     300.00000000     300.00000000     300.00000000     300.00000000     300.00000000     300.00000000     300.00000000     300.00000000     300.00000000     300.00000000     300.00000000
       300.00000000     300.00000000     300.00000000     300.00000000     300.00000000     300.00000000     300.00000000     300.00000000     300.00000000     300.00000000     300.00000000     300.00000000     300.00000000     300.00000000     300.00000000     300.00000000     300.00000000     300.00000000     300.00000000     300.00000000
       300.00000000     300.00000000     300.00000000     300.00000000     300.00000000     300.00000000     300.00000000     300.00000000     300.00000000     300.00000000     300.00000000     300.00000000     300.00000000     300.00000000     300.00000000     300.00000000     300.00000000     300.00000000     300.00000000     300.00000000
       300.00000000     300.00000000     300.00000000     300.00000000     300.00000000     300.00000000     300.00000000     300.00000000     300.00000000     300.00000000     300.00000000     300.00000000     300.00000000     300.00000000     300.00000000     300.00000000     300.00000000     300.00000000     300.00000000     300.00000000
       300.00000000     300.00000000
  top
    INTERNAL  FACTOR  1.0
      9999.00000000    9999.00000000    9999.00000000    9999.00000000    9999.00000000    9999.00000000    9999.00000000    9999.00000000    9999.00000000    9999.00000000    9999.00000000    9999.00000000    9999.00000000    9999.00000000    9999.00000000    9999.00000000    9999.00000000    9999.00000000    9999.00000000    9999.00000000
      9999.00000000    9999.00000000    9999.00000000    9999.00000000    9999.00000000    9999.00000000    9999.00000000    9999.00000000    9999.00000000    9999.00000000    9999.00000000    9999.00000000    9999.00000000    9999.00000000    9999.00000000    9999.00000000    9999.00000000    9999.00000000    9999.00000000    9999.00000000
      9999.00000000    9999.00000000    9999.00000000    9999.00000000    9999.00000000    9999.00000000    9999.00000000    9999.00000000    9999.00000000    9999.00000000    9999.00000000    9999.00000000    9999.00000000    9999.00000000    9999.00000000    9999.00000000    9999.00000000    9999.00000000    9999.00000000    9999.00000000
      9999.00000000    9999.00000000    9999.00000000    9999.00000000    9999.00000000    9999.00000000    9999.00000000    9999.00000000    9999.00000000    9999.00000000    9999.00000000    9999.00000000    9999.00000000    9999.00000000    9999.00000000    9999.00000000    9999.00000000    9999.00000000    9999.00000000    9999.00000000
      9999.00000000    9999.00000000    9999.00000000    9999.00000000    9999.00000000    9999.00000000    9999.00000000    9999.00000000    9999.00000000    9999.00000000    9999.00000000    9999.00000000    9999.00000000    9999.00000000    9999.00000000    9999.00000000    9999.00000000    9999.00000000    9999.00000000    9999.00000000
      9999.00000000    9999.00000000    9999.00000000    9999.00000000    9999.00000000    9999.00000000    9999.00000000    9999.00000000    9999.00000000    9999.00000000    9999.00000000    9999.00000000    9999.00000000    9999.00000000    9999.00000000    9999.00000000    9999.00000000    9999.00000000    9999.00000000    9999.00000000
      9999.00000000    9999.00000000    9999.00000000    9999.00000000    9999.00000000    9999.00000000    9999.00000000    9999.00000000    9999.00000000    9999.00000000    9999.00000000    9999.00000000    9999.00000000    9999.00000000    9999.00000000    9999.00000000    9999.00000000    9999.00000000    9999.00000000    9999.00000000
      9999.00000000    9999.00000000    9999.00000000    9999.00000000    9999.00000000    9999.00000000    9999.00000000    9999.00000000    9999.00000000    9999.00000000    9999.00000000    9999.00000000    9999.00000000    9999.00000000    9999.00000000    9999.00000000    9999.00000000    9999.00000000    9999.00000000    9999.00000000
      9999.00000000    9999.00000000    9999.00000000    9999.00000000    9999.00000000    9999.00000000    9999.00000000    9999.00000000    9999.00000000    9999.00000000    9999.00000000    9999.00000000    9999.00000000    9999.00000000    9999.00000000    9999.00000000    9999.00000000    9999.00000000    9999.00000000    9999.00000000
      9999.00000000    9999.00000000    9999.00000000    9999.00000000    9999.00000000    9999.00000000    9999.00000000    9999.00000000    9999.00000000    9999.00000000    9999.00000000    9999.00000000    9999.00000000    9999.00000000    9999.00000000    9999.00000000    9999.00000000    9999.00000000    9999.00000000    9999.00000000
      9999.00000000    9999.00000000    9999.00000000    9999.00000000    9999.00000000    9999.00000000    9999.00000000    9999.00000000    9999.00000000    9999.00000000    9999.00000000    9999.00000000    9999.00000000    9999.00000000    9999.00000000    9999.00000000    9999.00000000    9999.00000000    9999.00000000    9999.00000000
      9999.00000000    9999.00000000    9999.00000000    9999.00000000    9999.00000000    9999.00000000    9999.00000000    9999.00000000    9999.00000000    9999.00000000    9999.00000000    9999.00000000    9999.00000000    9999.00000000
      9999.00000000    9999.00000000    9999.00000000    9999.00000000    9999.00000000    9999.00000000    9999.00000000    9999.00000000    9999.00000000    9999.00000000    9999.00000000    9999.00000000    9999.00000000    9999.00000000    9999.00000000    9999.00000000    9999.00000000    9999.00000000    9999.00000000    9999.00000000
      9999.00000000    9999.00000000    9999.00000000    9999.00000000    9999.00000000    9999.00000000    9999.00000000    9999.00000000    9999.00000000    9999.00000000    9999.00000000    9999.00000000    9999.00000000    9999.00000000    9999.00000000    9999.00000000    9999.00000000    9999.00000000    9999.00000000    9999.00000000
      9999.00000000    9999.00000000    9999.00000000    9999.00000000    9999.00000000    9999.00000000    9999.00000000    9999.00000000    9999.00000000    9999.00000000    9999.00000000    9999.00000000    9999.00000000    9999.00000000    9999.00000000    9999.00000000    9999.00000000    9999.00000000    9999.00000000    9999.00000000
      9999.00000000    9999.00000000    9999.00000000    9999.00000000    9999.00000000    9999.00000000    9999.00000000    9999.00000000    9999.00000000    9999.00000000    9999.00000000    9999.00000000    9999.00000000    9999.00000000    9999.00000000    9999.00000000    9999.00000000    9999.00000000    9999.00000000    9999.00000000
      9999.00000000    9999.00000000    9999.00000000    9999.00000000    9999.00000000    9999.00000000    9999.00000000    9999.00000000    9999.00000000    9999.00000000    9999.00000000    9999.00000000    9999.00000000    9999.00000000    9999.00000000    9999.00000000    9999.00000000    9999.00000000    9999.00000000    9999.00000000
      9999.00000000    9999.00000000    9999.00000000    9999.00000000    9999.00000000    9999.00000000    9999.00000000    9999.00000000    9999.00000000    9999.00000000    9999.00000000    9999.00000000    9999.00000000    9999.00000000    9999.00000000    9999.00000000    9999.00000000    9999.00000000    9999.00000000    9999.00000000
      9999.00000000    9999.00000000    9999.00000000    9999.00000000    9999.00000000    9999.00000000    9999.00000000    9999.00000000    9999.00000000    9999.00000000    9999.00000000    9999.00000000    9999.00000000    9999.00000000    9999.00000000    9999.00000000    9999.00000000    9999.00000000    9999.00000000    9999.00000000
      9999.00000000    9999.00000000     -31.89999962     -33.20000076     -33.79999924     -34.20000076     -34.59999847     -34.90000153     -35.50000000     -35.90000153     -36.20000076     -36.70000076     -37.00000000     -37.40000153     -37.79999924     -38.09999847     -38.70000076     -39.09999847     -39.50000000     -40.00000000
       -40.29999924     -40.90000153     -41.40000153     -41.79999924     -42.29999924     -42.70000076     -43.40000153     -44.00000000     -44.29999924     -45.09999847     -45.70000076     -46.29999924     -46.79999924     -47.29999924     -48.50000000     -49.40000153     -49.70000076     -50.29999924     -50.70000076     -51.59999847
       -52.29999924     -52.90000153     -53.79999924     -54.29999924     -55.40000153     -56.00000000     -56.70000076     -57.70000076     -58.50000000     -59.29999924     -60.00000000     -60.70000076     -62.00000000     -62.70000076     -63.29999924     -64.30000305     -64.80000305     -66.00000000     -66.69999695     -67.30000305
       -68.30000305     -68.80000305     -69.80000305     -70.59999847     -71.50000000     -72.59999847     -73.30000305     -73.80000305     -74.50000000     -75.30000305     -76.19999695     -76.50000000     -76.90000153     -77.59999847     -78.00000000     -78.50000000     -78.80000305     -79.09999847     -79.69999695     -80.00000000
       -80.59999847     -81.09999847     -81.40000153     -82.00000000     -82.40000153     -82.80000305     -83.30000305     -83.69999695     -84.00000000     -84.50000000     -84.69999695     -85.30000305     -85.69999695    9999.00000000
      9999.00000000    9999.00000000    9999.00000000    9999.00000000    9999.00000000    9999.00000000    9999.00000000    9999.00000000    9999.00000000    9999.00000000    9999.00000000    9999.00000000    9999.00000000    9999.00000000    9999.00000000    9999.00000000    9999.00000000    9999.00000000    9999.00000000    9999.00000000
      9999.00000000    9999.00000000    9999.00000000    9999.00000000    9999.00000000    9999.00000000    9999.00000000    9999.00000000    9999.00000000    9999.00000000    9999.00000000    9999.00000000    9999.00000000    9999.00000000    9999.00000000    9999.00000000    9999.00000000    9999.00000000    9999.00000000    9999.00000000
      9999.00000000    9999.00000000    9999.00000000    9999.00000000    9999.00000000    9999.00000000    9999.00000000    9999.00000000    9999.00000000    9999.00000000    9999.00000000    9999.00000000    9999.00000000    9999.00000000    9999.00000000    9999.00000000    9999.00000000    9999.00000000    9999.00000000    9999.00000000
      9999.00000000    9999.00000000    9999.00000000    9999.00000000    9999.00000000    9999.00000000    9999.00000000    9999.00000000    9999.00000000    9999.00000000    9999.00000000    9999.00000000    9999.00000000    9999.00000000    9999.00000000    9999.00000000    9999.00000000    9999.00000000    9999.00000000    9999.00000000
      9999.00000000    9999.00000000    9999.00000000    9999.00000000    9999.00000000    9999.00000000    9999.00000000    9999.00000000    9999.00000000    9999.00000000    9999.00000000    9999.00000000    9999.00000000    9999.00000000    9999.00000000    9999.00000000    9999.00000000    9999.00000000    9999.00000000    9999.00000000
      9999.00000000    9999.00000000    9999.00000000    9999.00000000    9999.00000000    9999.00000000    9999.00000000    9999.00000000    9999.00000000    9999.00000000    9999.00000000    9999.00000000    9999.00000000    9999.00000000    9999.00000000    9999.00000000    9999.00000000    9999.00000000    9999.00000000    9999.00000000
      9999.00000000    9999.00000000    9999.00000000    9999.00000000    9999.00000000    9999.00000000    9999.00000000    9999.00000000    9999.00000000    9999.00000000    9999.00000000    9999.00000000    9999.00000000    9999.00000000    9999.00000000    9999.00000000    9999.00000000    9999.00000000    9999.00000000     -27.29999924
       -29.70000076     -31.39999962     -32.00000000     -33.50000000     -34.00000000     -34.29999924     -34.79999924     -35.20000076     -35.79999924     -36.09999847     -36.29999924     -36.79999924     -37.20000076     -37.70000076     -38.00000000     -38.29999924     -39.00000000     -39.29999924     -39.79999924     -40.20000076
       -40.50000000     -41.00000000     -41.70000076     -42.00000000     -42.59999847     -43.09999847     -43.79999924     -44.29999924     -44.59999847     -45.29999924     -46.00000000     -46.50000000     -47.00000000     -47.50000000     -49.00000000     -49.50000000     -49.79999924     -50.50000000     -51.00000000     -51.90000153
       -52.50000000     -53.20000076     -54.29999924     -54.79999924     -55.90000153     -56.40000153     -57.09999847     -58.09999847     -58.79999924     -59.50000000     -60.29999924     -61.09999847     -62.29999924     -63.09999847     -63.70000076     -64.80000305     -65.30000305     -66.40000153     -67.09999847     -67.80000305
       -68.80000305     -69.30000305     -70.19999695     -70.90000153     -72.00000000     -73.00000000     -73.59999847     -74.19999695     -74.80000305     -75.50000000     -76.30000305     -76.80000305     -77.19999695     -77.80000305     -78.19999695     -78.80000305     -79.40000153     -79.80000305     -80.19999695     -80.59999847
       -80.80000305     -81.40000153     -81.80000305     -82.30000305     -82.59999847     -82.90000153     -83.50000000     -83.90000153     -84.30000305     -84.90000153     -85.09999847     -85.59999847     -86.00000000    9999.00000000
      9999.00000000    9999.00000000    9999.00000000    9999.00000000    9999.00000000    9999.00000000    9999.00000000    9999.00000000    9999.00000000    9999.00000000    9999.00000000    9999.00000000    9999.00000000    9999.00000000    9999.00000000    9999.00000000    9999.00000000    9999.00000000    9999.00000000    9999.00000000
      9999.00000000    9999.00000000    9999.00000000    9999.00000000    9999.00000000    9999.00000000    9999.00000000    9999.00000000    9999.00000000    9999.00000000    9999.00000000    9999.00000000    9999.00000000    9999.00000000    9999.00000000    9999.00000000    9999.00000000    9999.00000000    9999.00000000    9999.00000000
      9999.00000000    9999.00000000    9999.00000000    9999.00000000    9999.00000000    9999.00000000    9999.00000000    9999.00000000    9999.00000000    9999.00000000    9999.00000000    9999.00000000    9999.00000000    9999.00000000    9999.00000000    9999.00000000    9999.00000000    9999.00000000    9999.00000000    9999.00000000
      9999.00000000    9999.00000000    9999.00000000    9999.00000000    9999.00000000    9999.00000000    9999.00000000    9999.00000000    9999.00000000    9999.00000000    9999.00000000    9999.00000000    9999.00000000    9999.00000000    9999.00000000    9999.00000000    9999.00000000    9999.00000000    9999.00000000    9999.00000000
      9999.00000000    9999.00000000    9999.00000000    9999.00000000    9999.00000000    9999.00000000    9999.00000000    9999.00000000    9999.00000000    9999.00000000    9999.00000000    9999.00000000    9999.00000000    9999.00000000    9999.00000000    9999.00000000    9999.00000000    9999.00000000    9999.00000000    9999.00000000
      9999.00000000    9999.00000000    9999.00000000    9999.00000000    9999.00000000    9999.00000000    9999.00000000    9999.00000000    9999.00000000    9999.00000000    9999.00000000    9999.00000000    9999.00000000    9999.00000000    9999.00000000    9999.00000000    9999.00000000    9999.00000000    9999.00000000    9999.00000000
      9999.00000000    9999.00000000    9999.00000000    9999.00000000    9999.00000000    9999.00000000    9999.00000000    9999.00000000    9999.00000000    9999.00000000    9999.00000000    9999.00000000    9999.00000000    9999.00000000    9999.00000000    9999.00000000     -17.70000076     -18.70000076     -23.70000076     -27.00000000
       -29.50000000     -31.00000000     -32.09999847     -33.50000000     -34.00000000     -34.50000000     -35.00000000     -35.29999924     -35.79999924     -36.20000076     -36.50000000     -36.90000153     -37.20000076     -37.70000076     -38.09999847     -38.40000153     -39.00000000     -39.50000000     -39.90000153     -40.29999924
       -40.70000076     -41.29999924     -41.79999924     -42.29999924     -42.79999924     -43.20000076     -43.90000153     -44.40000153     -44.79999924     -45.50000000     -45.90000153     -46.70000076     -47.29999924     -47.79999924     -49.29999924     -49.59999847     -50.00000000     -50.50000000     -51.20000076     -52.20000076
       -52.79999924     -53.40000153     -54.50000000     -55.00000000     -56.09999847     -56.70000076     -57.40000153     -58.50000000     -59.00000000     -59.90000153     -60.59999847     -61.40000153     -62.59999847     -63.29999924     -63.90000153     -64.90000153     -65.40000153     -66.59999847     -67.30000305     -68.09999847
       -69.09999847     -69.80000305     -70.59999847     -71.19999695     -72.19999695     -73.30000305     -73.69999695     -74.40000153     -74.90000153     -75.80000305     -76.40000153     -77.00000000     -77.40000153     -78.00000000     -78.69999695     -79.09999847     -79.59999847     -79.90000153     -80.50000000     -80.90000153
       -81.19999695     -81.69999695     -82.09999847     -82.50000000     -82.80000305     -83.19999695     -83.80000305     -84.19999695     -84.59999847     -85.09999847     -85.40000153     -85.90000153     -86.30000305    9999.00000000
      9999.00000000    9999.00000000    9999.00000000    9999.00000000    9999.00000000    9999.00000000    9999.00000000    9999.00000000    9999.00000000    9999.00000000    9999.00000000    9999.00000000    9999.00000000    9999.00000000    9999.00000000    9999.00000000    9999.00000000    9999.00000000    9999.00000000    9999.00000000
      9999.00000000    9999.00000000    9999.00000000    9999.00000000    9999.00000000    9999.00000000    9999.00000000    9999.00000000    9999.00000000    9999.00000000    9999.00000000    9999.00000000    9999.00000000    9999.00000000    9999.00000000    9999.00000000    9999.00000000    9999.00000000    9999.00000000    9999.00000000
      9999.00000000    9999.00000000    9999.00000000    9999.00000000    9999.00000000    9999.00000000    9999.00000000    9999.00000000    9999.00000000    9999.00000000    9999.00000000    9999.00000000    9999.00000000    9999.00000000    9999.00000000    9999.00000000    9999.00000000    9999.00000000    9999.00000000    9999.00000000
      9999.00000000    9999.00000000    9999.00000000    9999.00000000    9999.00000000    9999.00000000    9999.00000000    9999.00000000    9999.00000000    9999.00000000    9999.00000000    9999.00000000    9999.00000000    9999.00000000    9999.00000000    9999.00000000    9999.00000000    9999.00000000    9999.00000000    9999.00000000
      9999.00000000    9999.00000000    9999.00000000    9999.00000000    9999.00000000    9999.00000000    9999.00000000    9999.00000000    9999.00000000    9999.00000000    9999.00000000    9999.00000000    9999.00000000    9999.00000000    9999.00000000    9999.00000000    9999.00000000    9999.00000000    9999.00000000    9999.00000000
      9999.00000000    9999.00000000    9999.00000000    9999.00000000    9999.00000000    9999.00000000    9999.00000000    9999.00000000    9999.00000000    9999.00000000    9999.00000000    9999.00000000    9999.00000000    9999.00000000    9999.00000000    9999.00000000    9999.00000000    9999.00000000    9999.00000000    9999.00000000
      9999.00000000    9999.00000000    9999.00000000    9999.00000000    9999.00000000    9999.00000000    9999.00000000    9999.00000000    9999.00000000    9999.00000000    9999.00000000    9999.00000000    9999.00000000     -12.69999981     -13.00000000     -14.80000019     -16.70000076     -18.89999962     -23.70000076     -27.20000076
       -29.70000076     -31.09999847     -32.20000076     -33.59999847     -34.29999924     -34.79999924     -35.20000076     -35.50000000     -36.00000000     -36.29999924     -36.70000076     -37.00000000     -37.40000153     -37.90000153     -38.20000076     -38.59999847     -39.09999847     -39.70000076     -40.09999847     -40.40000153
       -40.90000153     -41.50000000     -42.00000000     -42.40000153     -43.00000000     -43.40000153     -44.09999847     -44.50000000     -45.00000000     -45.90000153     -46.29999924     -47.09999847     -47.50000000     -48.20000076     -49.50000000     -49.90000153     -50.40000153     -51.00000000     -51.70000076     -52.70000076
       -53.29999924     -53.90000153     -55.00000000     -55.50000000     -56.59999847     -57.20000076     -57.90000153     -59.09999847     -59.59999847     -60.50000000     -61.20000076     -62.00000000     -63.09999847     -63.79999924     -64.40000153     -65.19999695     -66.00000000     -67.00000000     -67.80000305     -68.59999847
       -69.69999695     -70.40000153     -71.00000000     -72.00000000     -72.80000305     -73.59999847     -74.19999695     -74.59999847     -75.50000000     -76.09999847     -76.69999695     -77.30000305     -77.59999847     -78.30000305     -78.90000153     -79.30000305     -79.90000153     -80.19999695     -80.69999695     -81.19999695
       -81.40000153     -82.00000000     -82.40000153     -82.80000305     -83.19999695     -83.50000000     -84.00000000     -84.40000153     -84.69999695     -85.19999695     -85.50000000     -86.09999847     -86.59999847    9999.00000000
      9999.00000000    9999.00000000    9999.00000000    9999.00000000    9999.00000000    9999.00000000    9999.00000000    9999.00000000    9999.00000000    9999.00000000    9999.00000000    9999.00000000    9999.00000000    9999.00000000    9999.00000000    9999.00000000    9999.00000000    9999.00000000    9999.00000000    9999.00000000
      9999.00000000    9999.00000000    9999.00000000    9999.00000000    9999.00000000    9999.00000000    9999.00000000    9999.00000000    9999.00000000    9999.00000000    9999.00000000    9999.00000000    9999.00000000    9999.00000000    9999.00000000    9999.00000000    9999.00000000    9999.00000000    9999.00000000    9999.00000000
      9999.00000000    9999.00000000    9999.00000000    9999.00000000    9999.00000000    9999.00000000    9999.00000000    9999.00000000    9999.00000000    9999.00000000    9999.00000000    9999.00000000    9999.00000000    9999.00000000    9999.00000000    9999.00000000    9999.00000000    9999.00000000    9999.00000000    9999.00000000
      9999.00000000    9999.00000000    9999.00000000    9999.00000000    9999.00000000    9999.00000000    9999.00000000    9999.00000000    9999.00000000    9999.00000000    9999.00000000    9999.00000000    9999.00000000    9999.00000000    9999.00000000    9999.00000000    9999.00000000    9999.00000000    9999.00000000    9999.00000000
      9999.00000000    9999.00000000    9999.00000000    9999.00000000    9999.00000000    9999.00000000    9999.00000000    9999.00000000    9999.00000000    9999.00000000    9999.00000000    9999.00000000    9999.00000000    9999.00000000    9999.00000000    9999.00000000    9999.00000000    9999.00000000    9999.00000000    9999.00000000
      9999.00000000    9999.00000000    9999.00000000    9999.00000000    9999.00000000    9999.00000000    9999.00000000    9999.00000000    9999.00000000    9999.00000000    9999.00000000    9999.00000000    9999.00000000    9999.00000000    9999.00000000    9999.00000000    9999.00000000    9999.00000000    9999.00000000    9999.00000000
      9999.00000000    9999.00000000    9999.00000000    9999.00000000    9999.00000000    9999.00000000    9999.00000000    9999.00000000    9999.00000000    9999.00000000     -10.00000000      -8.80000019     -10.19999981     -10.89999962     -11.89999962     -14.60000038     -16.89999962     -18.70000076     -23.60000038     -27.10000038