BEGIN options
  SAVE_FLOWS
END options

BEGIN dimensions
  MAXBOUND  443
END dimensions

BEGIN period  1
  3 109 115      -0.00456879
  4 109 115      -0.00456879
  3 90 122      -0.00216614
  4 90 122      -0.00216614
  3 106 102  -6.01201801E-04
  4 106 102  -6.01201801E-04
  3 106 103      -0.00901452
  4 106 103      -0.00901452
  3 88 94  -3.68340944E-04
  4 88 94  -3.68340944E-04
  3 87 99      -0.00531960
  4 87 99      -0.00531960
  3 103 101      -0.00676004
  4 103 101      -0.00676004
  3 114 102      -0.00395294
  4 114 102      -0.00395294
  3 78 117      -0.00247706
  4 78 117      -0.00247706
  3 103 65      -0.00191727
  4 103 65      -0.00191727
  3 105 65      -0.00731214
  4 105 65      -0.00731214
  3 113 74      -0.01184430
  4 113 74      -0.01184430
  3 98 82      -0.01169129
  4 98 82      -0.01169129
  3 98 79  -4.43937088E-04
  4 98 79  -4.43937088E-04
  3 100 70      -0.00380097
  4 100 70      -0.00380097
  3 103 42      -0.02148969
  4 103 42      -0.02148969
  3 108 47      -0.00181325
  4 108 47      -0.00181325
  3 103 27      -0.00176839
  4 103 27      -0.00176839
  3 72 73      -0.00443687
  4 72 73      -0.00443687
  3 99 44      -0.00203650
  4 99 44      -0.00203650
  3 97 119      -0.00419682
  4 97 119      -0.00419682
  3 77 86      -0.00839196
  4 77 86      -0.00839196
  4 140 68      -0.00856164
  3 59 100  -2.40994419E-04
  4 59 100  -2.40994419E-04
  3 113 67  -2.70484526E-04
  4 113 67  -2.70484526E-04
  3 102 51  -4.75646880E-05
  4 102 51  -4.75646880E-05
  3 99 46  -5.70776256E-05
  4 99 46  -5.70776256E-05
  3 114 48  -6.46578513E-04
  4 114 48  -6.46578513E-04
  3 121 113      -0.00474177
  4 121 113      -0.00474177
  3 137 121      -0.00617296
  4 137 121      -0.00617296
  3 129 117      -0.00225144
  4 129 117      -0.00225144
  3 134 86      -0.00139704
  4 134 86      -0.00139704
  3 114 103      -0.00332845
  4 114 103      -0.00332845
  3 122 106      -0.00144711
  4 122 106      -0.00144711
  3 123 82      -0.00310158
  4 123 82      -0.00310158
  3 118 74  -1.08923135E-05
  4 118 74  -1.08923135E-05
  3 127 68      -0.00568385
  4 127 68      -0.00568385
  3 96 121      -0.00203894
  4 96 121      -0.00203894
  3 85 127      -0.00440918
  4 85 127      -0.00440918
  3 104 118      -0.00584516
  4 104 118      -0.00584516
  3 96 119      -0.00414028
  4 96 119      -0.00414028
  3 98 125      -0.00523987
  4 98 125      -0.00523987
  3 88 123      -0.00913057
  4 88 123      -0.00913057
  3 105 127      -0.00373560
  4 105 127      -0.00373560
  3 138 118      -0.00539677
  4 138 118      -0.00539677
  3 135 112  -6.72168316E-04
  4 135 112  -6.72168316E-04
  3 121 86      -0.00203566
  4 121 86      -0.00203566
  3 136 100      -0.00394673
  4 136 100      -0.00394673
  3 129 95      -0.00364577
  4 129 95      -0.00364577
  3 132 95      -0.00366603
  4 132 95      -0.00366603
  3 134 97      -0.00414247
  4 134 97      -0.00414247
  3 135 98      -0.00454679
  4 135 98      -0.00454679
  3 127 105      -0.00219490
  4 127 105      -0.00219490
  3 123 95      -0.00542464
  4 123 95      -0.00542464
  3 132 86  -4.65182648E-04
  4 132 86  -4.65182648E-04
  3 133 102      -0.00606064
  4 133 102      -0.00606064
  3 134 88      -0.00411045
  4 134 88      -0.00411045
  3 114 73      -0.00558798
  4 114 73      -0.00558798
  4 137 75  -7.82090309E-04
  3 132 63      -0.00338505
  4 132 63      -0.00338505
  3 135 53      -0.00583528
  4 135 53      -0.00583528
  3 120 49      -0.00901787
  4 120 49      -0.00901787
  3 143 57      -0.00618341
  4 143 57      -0.00618341
  3 136 55  -5.01426941E-04
  4 136 55  -5.01426941E-04
  3 124 50      -0.00911022
  4 124 50      -0.00911022
  3 123 52  -5.31075596E-04
  4 123 52  -5.31075596E-04
  3 110 115      -0.00389672
  4 110 115      -0.00389672
  3 89 115      -0.00122899
  4 89 115      -0.00122899
  3 111 107  -4.75646880E-06
  4 111 107  -4.75646880E-06
  3 91 94  -6.81760528E-05
  4 91 94  -6.81760528E-05
  3 107 92      -0.00609123
  4 107 92      -0.00609123
  3 94 89      -0.00179344
  4 94 89      -0.00179344
  3 99 92  -1.83916794E-06
  4 99 92  -1.83916794E-06
  3 91 88      -0.00282544
  4 91 88      -0.00282544
  3 108 99  -6.69710807E-04
  4 108 99  -6.69710807E-04
  3 73 114      -0.00211065
  4 73 114      -0.00211065
  3 78 121      -0.00238779
  4 78 121      -0.00238779
  3 67 111      -0.00216572
  4 67 111      -0.00216572
  3 78 118      -0.00247647
  4 78 118      -0.00247647
  3 73 114      -0.00804910
  4 73 114      -0.00804910
  3 70 119      -0.00299753
  4 70 119      -0.00299753
  3 67 117      -0.00468644
  4 67 117      -0.00468644
  3 64 116      -0.00735303
  4 64 116      -0.00735303
  3 80 92      -0.00844280
  4 80 92      -0.00844280
  3 77 106      -0.00397465
  4 77 106      -0.00397465
  3 50 97      -0.00344059
  4 50 97      -0.00344059
  3 76 93  -1.90258752E-05
  4 76 93  -1.90258752E-05
  3 70 109      -0.00226176
  4 70 109      -0.00226176
  3 59 94  -1.08098681E-04
  4 59 94  -1.08098681E-04
  3 70 83  -7.52600203E-04
  4 70 83  -7.52600203E-04
  3 93 72      -0.00452705
  4 93 72      -0.00452705
  3 101 81      -0.00450582
  4 101 81      -0.00450582
  3 105 82  -8.72653475E-05
  4 105 82  -8.72653475E-05
  3 111 71  -5.84601725E-04
  4 111 71  -5.84601725E-04
  3 95 73      -0.00544200
  4 95 73      -0.00544200
  3 99 82  -2.13708143E-04
  4 99 82  -2.13708143E-04
  3 96 63      -0.00550688
  4 96 63      -0.00550688
  3 95 76      -0.00504167
  4 95 76      -0.00504167
  3 103 41      -0.01365327
  4 103 41      -0.01365327
  3 103 41      -0.00102435
  4 103 41      -0.00102435
  3 102 60  -2.53329528E-04
  4 102 60  -2.53329528E-04
  3 112 49  -1.90258752E-04
  4 112 49  -1.90258752E-04
  3 103 30      -0.01080787
  4 103 30      -0.01080787
  3 101 35      -0.00694687
  4 101 35      -0.00694687
  3 112 22  -8.06221461E-05
  4 112 22  -8.06221461E-05
  3 78 83      -0.00447441
  4 78 83      -0.00447441
  3 80 78      -0.00160165
  4 80 78      -0.00160165
  3 69 78  -1.66476408E-04
  4 69 78  -1.66476408E-04
  3 70 83      -0.00435344
  4 70 83      -0.00435344
  4 152 93  -3.54832572E-04
  3 140 107      -0.00854111
  4 140 107      -0.00854111
  3 124 50      -0.00986354
  4 124 50      -0.00986354
  3 82 120      -0.00192907
  4 82 120      -0.00192907
  3 87 94      -0.00135550
  4 87 94      -0.00135550
  3 91 88      -0.00282544
  4 91 88      -0.00282544
  3 65 121      -0.00426622
  4 65 121      -0.00426622
  3 67 111      -0.00556416
  4 67 111      -0.00556416
  3 68 110      -0.00264548
  4 68 110      -0.00264548
  3 67 117      -0.00221805
  4 67 117      -0.00221805
  3 68 110      -0.00255581
  4 68 110      -0.00255581
  3 71 93      -0.00128177
  4 71 93      -0.00128177
  3 70 109      -0.00320760
  4 70 109      -0.00320760
  3 65 93  -3.79534500E-04
  4 65 93  -3.79534500E-04
  3 105 40      -0.01128469
  4 105 40      -0.01128469
  3 46 129      -0.00486251
  4 46 129      -0.00486251
  3 129 86  -1.99296043E-04
  4 129 86  -1.99296043E-04
  3 132 91  -1.90258752E-04
  4 132 91  -1.90258752E-04
  3 132 91  -1.18911720E-05
  4 132 91  -1.18911720E-05
  3 118 74  -1.08447489E-04
  4 118 74  -1.08447489E-04
  3 65 101  -9.51293760E-05
  4 65 101  -9.51293760E-05
  3 141 122  -1.01471334E-04
  4 141 122  -1.01471334E-04
  3 108 32  -2.53678336E-04
  4 108 32  -2.53678336E-04
  3 91 91  -6.34195840E-05
  4 91 91  -6.34195840E-05
  3 68 77  -2.37823440E-04
  4 68 77  -2.37823440E-04
  3 108 47  -3.56735160E-05
  4 108 47  -3.56735160E-05
  3 111 48  -1.90258752E-04
  4 111 48  -1.90258752E-04
  3 148 103      -0.00423326
  4 148 103      -0.00423326
  3 82 112  -2.69533232E-04
  4 82 112  -2.69533232E-04
  3 47 98  -9.51293760E-05
  4 47 98  -9.51293760E-05
  3 106 41  -1.03056824E-05
  4 106 41  -1.03056824E-05
  3 113 37  -7.66774480E-04
  4 113 37  -7.66774480E-04
  3 117 65  -1.90258752E-04
  4 117 65  -1.90258752E-04
  3 117 44  -2.14041096E-04
  4 117 44  -2.14041096E-04
  3 106 19  -5.42285008E-04
  4 106 19  -5.42285008E-04
  3 110 34  -3.17415018E-04
  4 110 34  -3.17415018E-04
  3 103 29  -5.94558600E-05
  4 103 29  -5.94558600E-05
  3 125 75  -5.36054033E-04
  4 125 75  -5.36054033E-04
  3 113 54      -0.00380518
  4 113 54      -0.00380518
  3 52 104  -1.14155251E-04
  4 52 104  -1.14155251E-04
  3 42 106  -9.74283359E-04
  4 42 106  -9.74283359E-04
  3 111 44  -2.85388128E-04
  4 111 44  -2.85388128E-04
  3 119 66  -4.43937088E-05
  4 119 66  -4.43937088E-05
  3 71 81  -2.94774226E-04
  4 71 81  -2.94774226E-04
  3 69 76  -2.85388128E-04
  4 69 76  -2.85388128E-04
  3 64 116      -0.00375761
  4 64 116      -0.00375761
  3 89 116      -0.00147401
  4 89 116      -0.00147401
  3 139 112      -0.00141792
  4 139 112      -0.00141792
  3 139 77  -3.75602486E-05
  4 139 77  -3.75602486E-05
  3 143 57      -0.00559741
  4 143 57      -0.00559741
  3 46 129      -0.00509990
  4 46 129      -0.00509990
  4 138 76  -2.99784373E-04
  3 51 97  -7.71340690E-05
  4 51 97  -7.71340690E-05
  1 87 99      -0.01852448
  1 104 26  -7.87037037E-05
  1 109 53  -9.69748858E-04
  1 152 91      -0.00879287
  1 129 117      -0.00235661
  1 129 117      -0.00945152
  1 129 117      -0.01003656
  1 129 117      -0.00911726
  1 152 91      -0.00560458
  1 150 92      -0.00367526
  1 152 92      -0.01485769
  1 129 117      -0.00625856
  1 137 121      -0.05300685
  1 140 107      -0.00368760
  1 166 69      -0.02064181
  1 154 85      -0.00379665
  1 167 69  -6.92097920E-04
  1 171 62      -0.00790512
  1 162 77  -6.31151700E-04
  1 116 7      -0.00924978
  1 95 127  -2.45846017E-04
  1 105 40      -0.01522726
  1 101 54      -0.00893690
  1 109 42      -0.11600828
  1 103 30      -0.06838499
  1 95 127  -2.05701421E-04
  1 145 118  -2.21968544E-04
  1 102 69  -2.04845256E-04
  1 95 117      -0.00158549
  1 78 108      -0.00253678
  1 85 111  -6.65905632E-04
  1 114 72  -8.68848300E-05
  1 109 25  -4.66133942E-04
  1 110 12  -1.85660832E-04
  1 102 38  -1.80745814E-04
  1 103 23  -2.85388128E-04
  1 104 27  -3.10755961E-04
  1 101 28  -6.34195840E-04
  1 105 27  -5.07356672E-04
  1 102 25  -1.90258752E-04
  1 107 27  -4.42351598E-04
  1 105 26  -1.98503298E-04
  1 103 28  -5.67605277E-04
  1 104 29  -1.10984272E-04
  1 104 25  -2.12455606E-04
  1 146 101  -1.38381532E-04
  1 144 112  -1.26839168E-04
  1 144 106  -2.91254439E-04
  1 78 96      -0.00190259
  1 80 100  -7.61035008E-04
  1 82 100  -4.75646880E-05
  1 80 102  -6.34195840E-04
  1 76 91  -1.01471334E-04
  1 78 94  -6.34195840E-04
  1 80 99  -9.51293760E-05
  1 81 102  -1.77574835E-04
  1 74 92  -6.18340944E-04
  1 109 44  -3.80517504E-04
  1 112 43  -3.80517504E-04
  1 112 52  -3.80517504E-04
  1 105 46  -3.80517504E-04
  1 108 50  -3.80517504E-04
  1 109 50  -4.92770167E-04
  1 66 114  -1.90258752E-04
  1 67 113  -2.85388128E-04
  1 64 115  -2.66362253E-04
  1 65 110  -1.14155251E-04
  1 68 107  -1.90258752E-04
  1 70 110  -7.22983257E-04
  1 68 116  -1.26839168E-04
  1 69 115  -2.53678336E-05
  1 67 114  -6.34195840E-04
  1 52 105  -1.90258752E-04
  1 51 105  -2.37823440E-04
  1 116 50  -3.55149670E-04
  1 76 119  -1.20497210E-04
  1 76 125  -1.52207002E-04
  1 76 118  -5.83460173E-04
  1 76 120      -0.00126839
  1 76 120      -0.00126839
  1 75 120  -2.53678336E-04
  1 81 115  -9.51293760E-04
  1 82 114  -3.80517504E-04
  1 85 114  -4.56621005E-04
  1 81 116  -5.77118214E-04
  1 82 117  -3.17097920E-04
  1 113 65  -2.02942669E-04
  1 91 114  -5.07356672E-04
  1 92 112  -1.52207002E-04
  1 92 110  -5.07356672E-04
  1 92 109  -6.34195840E-04
  1 90 108  -2.66362253E-04
  1 92 107  -1.26839168E-04
  1 90 108  -1.01471334E-04
  1 91 115  -1.90258752E-04
  1 93 109  -1.01471334E-04
  1 92 114  -7.48351091E-05
  1 92 109      -0.00122400
  1 85 114  -8.62506342E-04
  1 157 91  -5.70776256E-04
  1 98 64  -1.58548960E-04
  1 87 105  -5.07356672E-04
  1 85 105  -1.58548960E-04
  1 85 103  -1.71232877E-04
  1 141 119      -0.00232024
  1 105 29  -2.85388128E-04
  1 103 29  -4.71841705E-04
  1 92 94  -2.85388128E-04
  1 97 100  -8.16812532E-04
  1 97 84  -2.85388128E-04
  1 109 51  -1.90258752E-04
  1 114 64  -9.51293760E-04
  1 90 111  -5.07356672E-04
  1 91 112  -1.90258752E-04
  1 91 112  -1.21765601E-04
  1 86 112  -7.29325216E-04
  1 104 43      -0.00406028
  1 142 114      -0.01716086
  1 116 10      -0.00532725
  1 138 110      -0.02072073
  1 107 42  -2.18797565E-04
  1 148 99      -0.01106298
  1 116 23  -5.70776256E-04
END period  1

