BEGIN options
END options

BEGIN griddata
  icelltype
    CONSTANT  0
  k  LAYERED
    CONSTANT  5.00000000E-04
    CONSTANT  2.50000000E-09
    CONSTANT  2.50000000E-05
    CONSTANT  2.00000000E-05
  k33  LAYERED
    CONSTANT  1.00000000E-04
    CONSTANT  5.00000000E-10
    CONSTANT  5.00000000E-06
    CONSTANT  4.00000000E-06
END griddata

