BEGIN options
  SAVE_FLOWS
END options

BEGIN griddata
  icelltype
    CONSTANT  0
  k  LAYERED
    INTERNAL  FACTOR  1.0
           0.00100000       0.00100000       0.00100000       0.00100000       0.00100000       0.00100000       0.00100000       0.00100000       0.00100000       0.00100000       0.00100000       0.00100000       0.00100000       0.00100000       0.00100000       0.00100000       0.00100000       0.00100000       0.00100000       0.00100000
           0.00100000       0.00100000       0.00100000       0.00100000       0.00100000       0.00100000       0.00100000       0.00100000       0.00100000       0.00100000       0.00100000       0.00100000       0.00100000       0.00100000       0.00100000       0.00100000       0.00100000       0.00100000       0.00100000       0.00100000
           0.00100000       0.00100000       0.00100000       0.00100000       0.00100000       0.00100000       0.00100000       0.00100000       0.00100000       0.00100000       0.00100000       0.00100000       0.00100000       0.00100000       0.00100000       0.00100000       0.00100000       0.00100000       0.00100000       0.00100000
           0.00100000       0.00100000       0.00100000       0.00100000       0.00100000       0.00100000       0.00100000       0.00100000       0.00100000       0.00100000       0.00100000       0.00100000       0.00100000       0.00100000       0.00100000       0.00100000       0.00100000       0.00100000       0.00100000       0.00100000
           0.00100000       0.00100000       0.00100000       0.00100000       0.00100000       0.00100000       0.00100000       0.00100000       0.00100000       0.00100000       0.00100000       0.00100000       0.00100000       0.00100000       0.00100000       0.00100000       0.00100000       0.00100000       0.00100000       0.00100000
           0.00100000       0.00100000       0.00100000       0.00100000       0.00100000       0.00100000       0.00100000       0.00100000       0.00100000       0.00100000       0.00100000       0.00100000       0.00100000       0.00100000       0.00100000       0.00100000       0.00100000       0.00100000       0.00100000       0.00100000
           0.00100000       0.00100000       0.00100000       0.00100000       0.00100000       0.00100000       0.00100000       0.00100000       0.00100000       0.00100000       0.00100000       0.00100000       0.00100000       0.00100000       0.00100000       0.00100000       0.00100000       0.00100000       0.00100000       0.00100000
           0.00100000       0.00100000       0.00100000       0.00100000       0.00100000       0.00100000       0.00100000       0.00100000       0.00100000       0.00100000       0.00100000       0.00100000       0.00100000       0.00100000       0.00100000       0.00100000       0.00100000       0.00100000       0.00100000       0.00100000
           0.00100000       0.00100000       0.00100000       0.00100000       0.00100000       0.00100000       0.00100000       0.00100000       0.00100000       0.00100000       0.00100000       0.00100000       0.00100000       0.00100000       0.00100000       0.00100000       0.00100000       0.00100000       0.00100000       0.00100000
           0.00100000       0.00100000       0.00100000
           0.00100000       0.00100000       0.00100000       0.00100000       0.00100000       0.00100000       0.00100000       0.00100000       0.00100000       0.00100000       0.00100000       0.00100000       0.00100000       0.00100000       0.00100000       0.00100000       0.00100000       0.00100000       0.00100000       0.00100000
           0.00100000       0.00100000       0.00100000       0.00100000       0.00100000       0.00100000       0.00100000       0.00100000       0.00100000       0.00100000       0.00100000       0.00100000       0.00100000       0.00100000       0.00100000       0.00100000       0.00100000       0.00100000       0.00100000       0.00100000
           0.00100000       0.00100000       0.00100000       0.00100000       0.00100000       0.00100000       0.00100000       0.00100000       0.00100000       0.00100000       0.00100000       0.00100000       0.00100000       0.00100000       0.00100000       0.00100000       0.00100000       0.00100000       0.00100000       0.00100000
           0.00100000       0.00100000       0.00100000       0.00100000       0.00100000       0.00100000       0.00100000       0.00100000       0.00100000       0.00100000       0.00100000       0.00100000       0.00100000       0.00100000       0.00100000       0.00100000       0.00100000       0.00100000       0.00100000       0.00100000
           0.00100000       0.00100000       0.00100000       0.00100000       0.00100000       0.00100000       0.00100000       0.00100000       0.00100000       0.00100000       0.00100000       0.00100000       0.00100000       0.00100000       0.00100000       0.00100000       0.00100000       0.00100000       0.00100000       0.00100000
           0.00100000       0.00100000       0.00100000       0.00100000       0.00100000       0.00100000       0.00100000       0.00100000       0.00100000       0.00100000       0.00100000       0.00100000       0.00100000       0.00100000       0.00100000       0.00100000       0.00100000       0.00100000       0.00100000       0.00100000
           0.00100000       0.00100000       0.00100000       0.00100000       0.00100000       0.00100000       0.00100000       0.00100000       0.00100000       0.00100000       0.00100000       0.00100000       0.00100000       0.00100000       0.00100000       0.00100000       0.00100000       0.00100000       0.00100000       0.00100000
           0.00100000       0.00100000       0.00100000       0.00100000       0.00100000       0.00100000       0.00100000       0.00100000       0.00100000       0.00100000       0.00100000       0.00100000       0.00100000       0.00100000       0.00100000       0.00100000       0.00100000       0.00100000       0.00100000       0.00100000
           0.00100000       0.00100000       0.00100000       0.00100000       0.00100000       0.00100000       0.00100000       0.00100000       0.00100000       0.00100000       0.00100000       0.00100000       0.00100000       0.00100000       0.00100000       0.00100000       0.00100000       0.00100000       0.00100000       0.00100000
           0.00100000       0.00100000       0.00100000
           0.00100000       0.00100000       0.00100000       0.00100000       0.00100000       0.00100000       0.00100000       0.00100000       0.00100000       0.00100000       0.00100000       0.00100000       0.00100000       0.00100000       0.00100000       0.00100000       0.00100000       0.00100000       0.00100000       0.00100000
           0.00100000       0.00100000       0.00100000       0.00100000       0.00100000       0.00100000       0.00100000       0.00100000       0.00100000       0.00100000       0.00100000       0.00100000       0.00100000       0.00100000       0.00100000       0.00100000       0.00100000       0.00100000       0.00100000       0.00100000
           0.00100000       0.00100000       0.00100000       0.00100000       0.00100000       0.00100000       0.00100000       0.00100000       0.00100000       0.00100000       0.00100000       0.00100000       0.00100000       0.00100000       0.00100000       0.00100000       0.00100000       0.00100000       0.00100000       0.00100000
           0.00100000       0.00100000       0.00100000       0.00100000       0.00100000       0.00100000       0.00100000       0.00100000       0.00100000       0.00100000       0.00100000       0.00100000       0.00100000       0.00100000       0.00100000       0.00100000       0.00100000       0.00100000       0.00100000       0.00100000
           0.00100000       0.00100000       0.00100000       0.00100000       0.00100000       0.00100000       0.00100000       0.00100000       0.00100000       0.00100000       0.00100000       0.00100000       0.00100000       0.00100000       0.00100000       0.00100000       0.00100000       0.00100000       0.00100000       0.00100000
           0.00100000       0.00100000       0.00100000       0.00100000       0.00100000       0.00100000       0.00100000       0.00100000       0.00100000       0.00100000       0.00100000       0.00100000       0.00100000       0.00100000       0.00100000       0.00100000       0.00100000       0.00100000       0.00100000       0.00100000
           0.00100000       0.00100000       0.00100000       0.00100000       0.00100000       0.00100000       0.00100000       0.00100000       0.00100000       0.00100000       0.00100000       0.00100000       0.00100000       0.00100000       0.00100000       0.00100000       0.00100000       0.00100000       0.00100000       0.00100000
           0.00100000       0.00100000       0.00100000       0.00100000       0.00100000       0.00100000       0.00100000       0.00100000       0.00100000       0.00100000       0.00100000       0.00100000       0.00100000       0.00100000       0.00100000       0.00100000       0.00100000       0.00100000       0.00100000       0.00100000
           0.00100000       0.00100000       0.00100000       0.00100000       0.00100000       0.00100000       0.00100000       0.00100000       0.00100000       0.00100000       0.00100000       0.00100000       0.00100000       0.00100000       0.00100000       0.00100000       0.00100000       0.00100000       0.00100000       0.00100000
           0.00100000       0.00100000       0.00100000
           0.00100000       0.00100000       0.00100000       0.00100000       0.00100000       0.00100000       0.00100000       0.00100000       0.00100000       0.00100000       0.00100000       0.00100000       0.00100000       0.00100000       0.00100000       0.00100000       0.00100000       0.00100000       0.00100000       0.00100000
           0.00100000       0.00100000       0.00100000       0.00100000       0.00100000       0.00100000       0.00100000       0.00100000       0.00100000       0.00100000       0.00100000       0.00100000       0.00100000       0.00100000       0.00100000       0.00100000       0.00100000       0.00100000       0.00100000       0.00100000
           0.00100000       0.00100000       0.00100000       0.00100000       0.00100000       0.00100000       0.00100000       0.00100000       0.00100000       0.00100000       0.00100000       0.00100000       0.00100000       0.00100000       0.00100000       0.00100000       0.00100000       0.00100000       0.00100000       0.00100000
           0.00100000       0.00100000       0.00100000       0.00100000       0.00100000       0.00100000       0.00100000       0.00100000       0.00100000       0.00100000       0.00100000       0.00100000       0.00100000       0.00100000       0.00100000       0.00100000       0.00100000       0.00100000       0.00100000       0.00100000
           0.00100000       0.00100000       0.00100000       0.00100000       0.00100000       0.00100000       0.00100000       0.00100000       0.00100000       0.00100000       0.00100000       0.00100000       0.00100000       0.00100000       0.00100000       0.00100000       0.00100000       0.00100000       0.00100000       0.00100000
           0.00100000       0.00100000       0.00100000       0.00100000       0.00100000       0.00100000       0.00100000       0.00100000       0.00100000       0.00100000       0.00100000       0.00100000       0.00100000       0.00100000       0.00100000       0.00100000       0.00100000       0.00100000       0.00100000       0.00100000
           0.00100000       0.00100000       0.00100000       0.00100000       0.00100000       0.00100000       0.00100000       0.00100000       0.00100000       0.00100000       0.00100000       0.00100000       0.00100000       0.00100000       0.00100000       0.00100000       0.00100000       0.00100000       0.00100000       0.00100000
           0.00100000       0.00100000       0.00100000       0.00100000       0.00100000       0.00100000       0.00100000       0.00100000       0.00100000       0.00100000       0.00100000       0.00100000       0.00100000       0.00100000       0.00100000       0.00100000       0.00100000       0.00100000       0.00100000       0.00100000
           0.00100000       0.00100000       0.00100000       0.00100000       0.00100000       0.00100000       0.00100000       0.00100000       0.00100000       0.00100000       0.00100000       0.00100000       0.00100000       0.00100000       0.00100000       0.00100000       0.00100000       0.00100000       0.00100000       0.00100000
           0.00100000       0.00100000       0.00100000
           0.00100000       0.00100000       0.00100000       0.00100000       0.00100000       0.00100000       0.00100000       0.00100000       0.00100000       0.00100000       0.00100000       0.00100000       0.00100000       0.00100000       0.00100000       0.00100000       0.00100000       0.00100000       0.00100000       0.00100000
           0.00100000       0.00100000       0.00100000       0.00100000       0.00100000       0.00100000       0.00100000       0.00100000       0.00100000       0.00100000       0.00100000       0.00100000       0.00100000       0.00100000       0.00100000       0.00100000       0.00100000       0.00100000       0.00100000       0.00100000
           0.00100000       0.00100000       0.00100000       0.00100000       0.00100000       0.00100000       0.00100000       0.00100000       0.00100000       0.00100000       0.00100000       0.00100000       0.00100000       0.00100000       0.00100000       0.00100000       0.00100000       0.00100000       0.00100000       0.00100000
           0.00100000       0.00100000       0.00100000       0.00100000       0.00100000       0.00100000       0.00100000       0.00100000       0.00100000       0.00100000       0.00100000       0.00100000       0.00100000       0.00100000       0.00100000       0.00100000       0.00100000       0.00100000       0.00100000       0.00100000
           0.00100000       0.00100000       0.00100000       0.00100000       0.00100000       0.00100000       0.00100000       0.00100000       0.00100000       0.00100000       0.00100000       0.00100000       0.00100000       0.00100000       0.00100000       0.00100000       0.00100000       0.00100000       0.00100000       0.00100000
           0.00100000       0.00100000       0.00100000       0.00100000       0.00100000       0.00100000       0.00100000       0.00100000       0.00100000       0.00100000       0.00100000       0.00100000       0.00100000       0.00100000       0.00100000       0.00100000       0.00100000       0.00100000       0.00100000       0.00100000
           0.00100000       0.00100000       0.00100000       0.00100000       0.00100000       0.00100000       0.00100000       0.00100000       0.00100000       0.00100000       0.00100000       0.00100000       0.00100000       0.00100000       0.00100000       0.00100000       0.00100000       0.00100000       0.00100000       0.00100000
           0.00100000       0.00100000       0.00100000       0.00100000       0.00100000       0.00100000       0.00100000       0.00100000       0.00100000       0.00100000       0.00100000       0.00100000       0.00100000       0.00100000       0.00100000       0.00100000       0.00100000       0.00100000       0.00100000       0.00100000
           0.00100000       0.00100000       0.00100000       0.00100000       0.00100000       0.00100000       0.00100000       0.00100000       0.00100000       0.00100000       0.00100000       0.00100000       0.00100000       0.00100000       0.00100000       0.00100000       0.00100000       0.00100000       0.00100000       0.00100000
           0.00100000       0.00100000       0.00100000
           0.00100000       0.00100000       0.00100000       0.00100000       0.00100000       0.00100000       0.00100000       0.00100000       0.00100000       0.00100000       0.00100000       0.00100000       0.00100000       0.00100000       0.00100000       0.00100000       0.00100000       0.00100000       0.00100000       0.00100000
           0.00100000       0.00100000       0.00100000       0.00100000       0.00100000       0.00100000       0.00100000       0.00100000       0.00100000       0.00100000       0.00100000       0.00100000       0.00100000       0.00100000       0.00100000       0.00100000       0.00100000       0.00100000       0.00100000       0.00100000
           0.00100000       0.00100000       0.00100000       0.00100000       0.00100000       0.00100000       0.00100000       0.00100000       0.00100000       0.00100000       0.00100000       0.00100000       0.00100000       0.00100000       0.00100000       0.00100000       0.00100000       0.00100000       0.00100000       0.00100000
           0.00100000       0.00100000       0.00100000       0.00100000       0.00100000       0.00100000       0.00100000       0.00100000       0.00100000       0.00100000       0.00100000       0.00100000       0.00100000       0.00100000       0.00100000       0.00100000       0.00100000       0.00100000       0.00100000       0.00100000
           0.00100000       0.00100000       0.00100000       0.00100000       0.00100000       0.00100000       0.00100000       0.00100000       0.00100000       0.00100000       0.00100000       0.00100000       0.00100000       0.00100000       0.00100000       0.00100000       0.00100000       0.00100000       0.00100000       0.00100000
           0.00100000       0.00100000       0.00100000       0.00100000       0.00100000       0.00100000       0.00100000       0.00100000       0.00100000       0.00100000       0.00100000       0.00100000       0.00100000       0.00100000       0.00100000       0.00100000       0.00100000       0.00100000       0.00100000       0.00100000
           0.00100000       0.00100000       0.00100000       0.00100000       0.00100000       0.00100000       0.00100000       0.00100000       0.00100000       0.00100000       0.00100000       0.00100000       0.00100000       0.00100000       0.00100000       0.00100000       0.00100000       0.00100000       0.00100000       0.00100000
           0.00100000       0.00100000       0.00100000       0.00100000       0.00100000       0.00100000       0.00100000       0.00100000       0.00100000       0.00100000       0.00100000       0.00100000       0.00100000       0.00100000       0.00100000       0.00100000       0.00100000       0.00100000       0.00100000       0.00100000
           0.00100000       0.00100000       0.00100000       0.00100000       0.00100000       0.00100000       0.00100000       0.00100000       0.00100000       0.00100000       0.00100000       0.00100000       0.00100000       0.00100000       0.00100000       0.00100000       0.00100000       0.00100000       0.00100000       0.00100000
           0.00100000       0.00100000       0.00100000
           0.00100000       0.00100000       0.00100000       0.00100000       0.00100000       0.00100000       0.00100000       0.00100000       0.00100000       0.00100000       0.00100000       0.00100000       0.00100000       0.00100000       0.00100000       0.00100000       0.00100000       0.00100000       0.00100000       0.00100000
           0.00100000       0.00100000       0.00100000       0.00100000       0.00100000       0.00100000       0.00100000       0.00100000       0.00100000       0.00100000       0.00100000       0.00100000       0.00100000       0.00100000       0.00100000       0.00100000       0.00100000       0.00100000       0.00100000       0.00100000
           0.00100000       0.00100000       0.00100000       0.00100000       0.00100000       0.00100000       0.00100000       0.00100000       0.00100000       0.00100000       0.00100000       0.00100000       0.00100000       0.00100000       0.00100000       0.00100000       0.00100000       0.00100000       0.00100000       0.00100000
           0.00100000       0.00100000       0.00100000       0.00100000       0.00100000       0.00100000       0.00100000       0.00100000       0.00100000       0.00100000       0.00100000       0.00100000       0.00100000       0.00100000       0.00100000       0.00100000       0.00100000       0.00100000       0.00100000       0.00100000
           0.00100000       0.00100000       0.00100000       0.00100000       0.00100000       0.00100000       0.00100000       0.00100000       0.00100000       0.00100000       0.00100000       0.00100000       0.00100000       0.00100000       0.00100000       0.00100000       0.00100000       0.00100000       0.00100000       0.00100000
           0.00100000       0.00100000       0.00100000       0.00100000       0.00100000       0.00100000       0.00100000       0.00100000       0.00100000       0.00100000       0.00100000       0.00100000       0.00100000       0.00100000       0.00100000       0.00100000       0.00100000       0.00100000       0.00100000       0.00100000
           0.00100000       0.00100000       0.00100000       0.00100000       0.00100000       0.00100000       0.00100000       0.00100000       0.00100000       0.00100000       0.00100000       0.00100000       0.00100000       0.00100000       0.00100000       0.00100000       0.00100000       0.00100000       0.00100000       0.00100000
           0.00100000       0.00100000       0.00100000       0.00100000       0.00100000       0.00100000       0.00100000       0.00100000       0.00100000       0.00100000       0.00100000       0.00100000       0.00100000       0.00100000       0.00100000       0.00100000       0.00100000       0.00100000       0.00100000       0.00100000
           0.00100000       0.00100000       0.00100000       0.00100000       0.00100000       0.00100000       0.00100000       0.00100000       0.00100000       0.00100000       0.00100000       0.00100000       0.00100000       0.00100000       0.00100000       0.00100000       0.00100000       0.00100000       0.00100000       0.00100000
           0.00100000       0.00100000       0.00100000
           0.00100000       0.00100000       0.00100000       0.00100000       0.00100000       0.00100000       0.00100000       0.00100000       0.00100000       0.00100000       0.00100000       0.00100000       0.00100000       0.00100000       0.00100000       0.00100000       0.00100000       0.00100000       0.00100000       0.00100000
           0.00100000       0.00100000       0.00100000       0.00100000       0.00100000       0.00100000       0.00100000       0.00100000       0.00100000       0.00100000       0.00100000       0.00100000       0.00100000       0.00100000       0.00100000       0.00100000       0.00100000       0.00100000       0.00100000       0.00100000
           0.00100000       0.00100000       0.00100000       0.00100000       0.00100000       0.00100000       0.00100000       0.00100000       0.00100000       0.00100000       0.00100000       0.00100000       0.00100000       0.00100000       0.00100000       0.00100000       0.00100000       0.00100000       0.00100000       0.00100000
           0.00100000       0.00100000       0.00100000       0.00100000       0.00100000       0.00100000       0.00100000       0.00100000       0.00100000       0.00100000       0.00100000       0.00100000       0.00100000       0.00100000       0.00100000       0.00100000       0.00100000       0.00100000       0.00100000       0.00100000
           0.00100000       0.00100000       0.00100000       0.00100000       0.00100000       0.00100000       0.00100000       0.00100000       0.00100000       0.00100000       0.00100000       0.00100000       0.00100000       0.00100000       0.00100000       0.00100000       0.00100000       0.00100000       0.00100000       0.00100000
           0.00100000       0.00100000       0.00100000       0.00100000       0.00100000       0.00100000       0.00100000       0.00100000       0.00100000       0.00100000       0.00100000       0.00100000       0.00100000       0.00100000       0.00100000       0.00100000       0.00100000       0.00100000       0.00100000       0.00100000
           0.00100000       0.00100000       0.00100000       0.00100000       0.00100000       0.00100000       0.00100000       0.00100000       0.00100000       0.00100000       0.00100000       0.00100000       0.00100000       0.00100000       0.00100000       0.00100000       0.00100000       0.00100000       0.00100000       0.00100000
           0.00100000       0.00100000       0.00100000       0.00100000       0.00100000       0.00100000       0.00100000       0.00100000       0.00100000       0.00100000       0.00100000       0.00100000       0.00100000       0.00100000       0.00100000       0.00100000       0.00100000       0.00100000       0.00100000       0.00100000
           0.00100000       0.00100000       0.00100000       0.00100000       0.00100000       0.00100000       0.00100000       0.00100000       0.00100000       0.00100000       0.00100000       0.00100000       0.00100000       0.00100000       0.00100000       0.00100000       0.00100000       0.00100000       0.00100000       0.00100000
           0.00100000       0.00100000       0.00100000
           0.00100000       0.00100000       0.00100000       0.00100000       0.00100000       0.00100000       0.00100000       0.00100000       0.00100000       0.00100000       0.00100000       0.00100000       0.00100000       0.00100000       0.00100000       0.00100000       0.00100000       0.00100000       0.00100000       0.00100000
           0.00100000       0.00100000       0.00100000       0.00100000       0.00100000       0.00100000       0.00100000       0.00100000       0.00100000       0.00100000       0.00100000       0.00100000       0.00100000       0.00100000       0.00100000       0.00100000       0.00100000       0.00100000       0.00100000       0.00100000
           0.00100000       0.00100000       0.00100000       0.00100000       0.00100000       0.00100000       0.00100000       0.00100000       0.00100000       0.00100000       0.00100000       0.00100000       0.00100000       0.00100000       0.00100000       0.00100000       0.00100000       0.00100000       0.00100000       0.00100000
           0.00100000       0.00100000       0.00100000       0.00100000       0.00100000       0.00100000       0.00100000       0.00100000       0.00100000       0.00100000       0.00100000       0.00100000       0.00100000       0.00100000       0.00100000       0.00100000       0.00100000       0.00100000       0.00100000       0.00100000
           0.00100000       0.00100000       0.00100000       0.00100000       0.00100000       0.00100000       0.00100000       0.00100000       0.00100000       0.00100000       0.00100000       0.00100000       0.00100000       0.00100000       0.00100000       0.00100000       0.00100000       0.00100000       0.00100000       0.00100000
           0.00100000       0.00100000       0.00100000       0.00100000       0.00100000       0.00100000       0.00100000       0.00100000       0.00100000       0.00100000       0.00100000       0.00100000       0.00100000       0.00100000       0.00100000       0.00100000       0.00100000       0.00100000       0.00100000       0.00100000
           0.00100000       0.00100000       0.00100000       0.00100000       0.00100000       0.00100000       0.00100000       0.00100000       0.00100000       0.00100000       0.00100000       0.00100000       0.00100000       0.00100000       0.00100000       0.00100000       0.00100000       0.00100000       0.00100000       0.00100000
           0.00100000       0.00100000       0.00100000       0.00100000       0.00100000       0.00100000       0.00100000       0.00100000       0.00100000       0.00100000       0.00100000       0.00100000       0.00100000       0.00100000       0.00100000       0.00100000       0.00100000       0.00100000       0.00100000       0.00100000
           0.00100000       0.00100000       0.00100000       0.00100000       0.00100000       0.00100000       0.00100000       0.00100000       0.00100000       0.00100000       0.00100000       0.00100000       0.00100000       0.00100000       0.00100000       0.00100000       0.00100000       0.00100000       0.00100000       0.00100000
           0.00100000       0.00100000       0.00100000
           0.00100000       0.00100000       0.00100000       0.00100000       0.00100000       0.00100000       0.00100000       0.00100000       0.00100000       0.00100000       0.00100000       0.00100000       0.00100000       0.00100000       0.00100000       0.00100000       0.00100000       0.00100000       0.00100000       0.00100000
           0.00100000       0.00100000       0.00100000       0.00100000       0.00100000       0.00100000       0.00100000       0.00100000       0.00100000       0.00100000       0.00100000       0.00100000       0.00100000       0.00100000       0.00100000       0.00100000       0.00100000       0.00100000       0.00100000       0.00100000
           0.00100000       0.00100000       0.00100000       0.00100000       0.00100000       0.00100000       0.00100000       0.00100000       0.00100000       0.00100000       0.00100000       0.00100000       0.00100000       0.00100000       0.00100000       0.00100000       0.00100000       0.00100000       0.00100000       0.00100000
           0.00100000       0.00100000       0.00100000       0.00100000       0.00100000       0.00100000       0.00100000       0.00100000       0.00100000       0.00100000       0.00100000       0.00100000       0.00100000       0.00100000       0.00100000       0.00100000       0.00100000       0.00100000       0.00100000       0.00100000