BEGIN options
  SAVE_FLOWS
END options

BEGIN dimensions
  MAXBOUND  170
END dimensions

BEGIN period  1
  1 114 2     167.41609924
  1 114 3     164.13740931
  1 113 4     155.50104866
  1 113 5     153.21146507
  1 113 6     151.63789999
  1 113 7     150.06840293
  1 113 8     148.49941117
  1 113 9     147.17551212
  1 112 9     145.82365008
  1 111 9     144.20217618
  1 110 10     141.80217280
  1 109 11     139.71888214
  2 108 12     137.75458919
  1 108 13     136.14847670
  1 108 14     134.55960911
  1 108 15     132.94706078
  1 108 16     131.55265337
  1 107 16     130.62132155
  1 107 17     128.40665329
  1 106 17     126.99762932
  1 105 17     124.56472219
  1 105 18     123.98075235
  1 104 18     123.19917286
  1 104 19     122.42951455
  1 103 19     121.73876560
  1 103 20     120.86643857
  1 102 20     120.08884121
  1 102 21     118.38274534
  2 101 21     116.95052657
  1 101 22     113.51358800
  1 101 23     112.54541712
  1 101 24     111.57949057
  1 101 25     110.59952299
  1 101 26     107.74393642
  1 100 26     106.46655656
  1 100 27     104.00000000
  1 100 28     104.00000000
  1 100 29     103.30000413
  1 99 29      98.56973445
  1 99 30      97.77649589
  2 98 30      97.29342669
  1 99 31      96.77955254
  1 99 32      95.99410698
  1 99 33      95.56950043
  1 100 33      95.17768492
  1 100 34      94.00000000
  1 100 35      94.00000000
  1 100 36      94.00000000
  1 101 36      94.00000000
  1 101 37      92.77304455
  1 101 38      89.00000000
  1 101 39      89.00000000
  1 101 40      89.00000000
  1 102 40      88.60988401
  1 102 41      87.16691272
  1 102 42      83.16068289
  1 102 43      81.63321788
  1 103 43      80.74866998
  1 103 44      79.00000000
  1 103 45      78.31123616
  1 103 46      77.50326872
  1 104 46      76.78663927
  1 104 47      75.60928482
  1 104 48      73.25418516
  1 105 48      72.42980969
  1 105 49      71.51564432
  1 105 50      68.17589801
  1 105 51      66.53161853
  1 105 52      64.00000000
  1 105 53      64.00000000
  1 105 54      64.00000000
  1 105 55      62.99239726
  1 105 56      60.90939999
  1 105 57      59.00000000
  1 106 57      59.00000000
  1 106 58      58.42281033
  1 106 59      57.54879955
  1 105 59      56.85083386
  1 105 60      55.81089278
  1 105 61      53.49807660
  1 105 62      52.48363463
  1 105 63      51.48577487
  1 105 64      50.83207872
  1 104 64      50.33391504
  1 104 65      49.00000000
  1 104 66      49.00000000
  1 104 67      49.00000000
  1 103 67      49.00000000
  1 103 68      48.16830326
  1 103 69      46.48984688
  1 103 70      43.37459165
  1 103 71      42.11147314
  1 103 72      39.77345022
  1 103 73      39.54001363
  1 102 73      39.00000000
  1 101 73      39.00000000
  1 101 74      39.00000000
  1 101 75      37.78706654
  1 101 76      34.00000000
  1 101 77      34.00000000
  1 100 77      34.00000000
  1 100 78      34.00000000
  1 100 79      32.73773198
  1 100 80      29.00000000
  1 100 81      29.00000000
  1 100 82      29.00000000
  1 100 83      29.00000000
  1 99 83      29.00000000
  1 99 84      29.00000000
  1 99 85      29.00000000
  1 99 86      29.00000000
  1 99 87      28.42091253
  1 98 87      27.57556750
  1 98 88      26.48724739
  1 98 89      23.60382625
  1 98 90      22.79032620
  1 98 91      22.36796415
  1 97 91      21.95393823
  1 97 92      21.13248387
  1 97 93      20.57224172
  1 96 93      20.12466323
  1 96 94      18.61967189
  1 96 95      17.94249796
  1 95 95      17.57941830
  1 95 96      17.13739554
  1 95 97      16.38006816
  1 95 98      15.83194954
  1 94 98      15.45823336
  1 94 99      14.88939926
  1 94 100      14.13218276
  1 94 101      13.55249946
  1 93 101      12.89711838
  1 93 102      12.70693187
  1 94 102      12.50406843
  1 93 103      12.22260493
  1 94 103      12.01807344
  1 94 104      11.76843798
  1 94 105      11.35090126
  1 94 106      10.94358090
  1 94 107      10.54480908
  1 94 108      10.14553111
  1 94 109       9.74561171
  1 94 110       9.34618879
  1 94 111       8.94165159
  1 94 112       8.53870289
  1 94 113       8.13896474
  1 94 114       7.72374446
  1 94 115       7.30906369
  1 94 116       6.89836918
  1 94 117       6.54598711
  1 95 117       6.28057901
  1 95 118       5.95858908
  1 96 118       5.72323600
  1 96 119       5.52006798
  1 95 119       5.31598586
  1 95 120       5.01435614
  1 95 121       4.73737123
  1 94 121       4.44361616
  1 94 122       3.96314243
  1 94 123       3.55122840
  1 94 124       3.17910004
  1 95 124       2.93941863
  1 95 125       2.62609260
  1 96 125       2.37331069
  1 96 126       2.13758356
  1 96 127       1.75623783
  1 95 127       1.52838979
  1 95 128       1.22956760
  1 95 129       0.93551872
  1 94 129       0.65865408
END period  1

