BEGIN options
  SAVE_FLOWS
END options

BEGIN dimensions
  MAXBOUND  169
END dimensions

BEGIN period  1
  2 114 2     167.41609924       0.01000000     165.41609924
  2 114 3     164.13740931       0.01000000     162.13740931
  2 113 5     153.21146507       0.01000000     151.21146507
  2 113 6     151.63789999       0.01000000     149.63789999
  2 113 7     150.06840293       0.01000000     148.06840293
  2 113 8     148.49941117       0.01000000     146.49941117
  2 113 9     147.17551212       0.01000000     145.17551212
  2 112 9     145.82365008       0.01000000     143.82365008
  2 111 9     144.20217618       0.01000000     142.20217618
  2 110 10     141.80217280       0.01000000     139.80217280
  2 109 11     139.71888214       0.01000000     137.71888214
  4 108 12     137.75458919       0.01000000     135.75458919
  4 108 13     136.14847670       0.01000000     134.14847670
  2 108 14     134.55960911       0.01000000     132.55960911
  2 108 15     132.94706078       0.01000000     130.94706078
  2 108 16     131.55265337       0.01000000     129.55265337
  2 107 16     130.62132155       0.01000000     128.62132155
  2 107 17     128.40665329       0.01000000     126.40665329
  2 106 17     126.99762932       0.01000000     124.99762932
  2 105 17     124.56472219       0.01000000     122.56472219
  2 105 18     123.98075235       0.01000000     121.98075235
  2 104 18     123.19917286       0.01000000     121.19917286
  2 104 19     122.42951455       0.01000000     120.42951455
  2 103 19     121.73876560       0.01000000     119.73876560
  2 103 20     120.86643857       0.01000000     118.86643857
  2 102 20     120.08884121       0.01000000     118.08884121
  2 102 21     118.38274534       0.01000000     116.38274534
  4 101 21     116.95052657       0.01000000     114.95052657
  2 101 22     113.51358800       0.01000000     111.51358800
  2 101 23     112.54541712       0.01000000     110.54541712
  2 101 24     111.57949057       0.01000000     109.57949057
  2 101 25     110.59952299       0.01000000     108.59952299
  2 101 26     107.74393642       0.01000000     105.74393642
  2 100 26     106.46655656       0.01000000     104.46655656
  2 100 27     104.00000000       0.01000000     102.00000000
  2 100 28     104.00000000       0.01000000     102.00000000
  2 100 29     103.30000413       0.01000000     101.30000413
  2 99 29      98.56973445       0.01000000      96.56973445
  2 99 30      97.77649589       0.01000000      95.77649589
  4 98 30      97.29342669       0.01000000      95.29342669
  2 99 31      96.77955254       0.01000000      94.77955254
  2 99 32      95.99410698       0.01000000      93.99410698
  2 99 33      95.56950043       0.01000000      93.56950043
  2 100 33      95.17768492       0.01000000      93.17768492
  2 100 34      94.00000000       0.01000000      92.00000000
  2 100 35      94.00000000       0.01000000      92.00000000
  2 100 36      94.00000000       0.01000000      92.00000000
  2 101 36      94.00000000       0.01000000      92.00000000
  2 101 37      92.77304455       0.01000000      90.77304455
  2 101 38      89.00000000       0.01000000      87.00000000
  2 101 39      89.00000000       0.01000000      87.00000000
  2 101 40      89.00000000       0.01000000      87.00000000
  2 102 40      88.60988401       0.01000000      86.60988401
  2 102 41      87.16691272       0.01000000      85.16691272
  2 102 42      83.16068289       0.01000000      81.16068289
  2 102 43      81.63321788       0.01000000      79.63321788
  2 103 43      80.74866998       0.01000000      78.74866998
  2 103 44      79.00000000       0.01000000      77.00000000
  2 103 45      78.31123616       0.01000000      76.31123616
  2 103 46      77.50326872       0.01000000      75.50326872
  2 104 46      76.78663927       0.01000000      74.78663927
  2 104 47      75.60928482       0.01000000      73.60928482
  2 104 48      73.25418516       0.01000000      71.25418516
  2 105 48      72.42980969       0.01000000      70.42980969
  2 105 49      71.51564432       0.01000000      69.51564432
  2 105 50      68.17589801       0.01000000      66.17589801
  2 105 51      66.53161853       0.01000000      64.53161853
  2 105 52      64.00000000       0.01000000      62.00000000
  2 105 53      64.00000000       0.01000000      62.00000000
  2 105 54      64.00000000       0.01000000      62.00000000
  2 105 55      62.99239726       0.01000000      60.99239726
  2 105 56      60.90939999       0.01000000      58.90939999
  2 105 57      59.00000000       0.01000000      57.00000000
  2 106 57      59.00000000       0.01000000      57.00000000
  2 106 58      58.42281033       0.01000000      56.42281033
  2 106 59      57.54879955       0.01000000      55.54879955
  2 105 59      56.85083386       0.01000000      54.85083386
  2 105 60      55.81089278       0.01000000      53.81089278
  2 105 61      53.49807660       0.01000000      51.49807660
  2 105 62      52.48363463       0.01000000      50.48363463
  2 105 63      51.48577487       0.01000000      49.48577487
  2 105 64      50.83207872       0.01000000      48.83207872
  2 104 64      50.33391504       0.01000000      48.33391504
  2 104 65      49.00000000       0.01000000      47.00000000
  2 104 66      49.00000000       0.01000000      47.00000000
  2 104 67      49.00000000       0.01000000      47.00000000
  2 103 67      49.00000000       0.01000000      47.00000000
  2 103 68      48.16830326       0.01000000      46.16830326
  2 103 69      46.48984688       0.01000000      44.48984688
  2 103 70      43.37459165       0.01000000      41.37459165
  2 103 71      42.11147314       0.01000000      40.11147314
  2 103 72      39.77345022       0.01000000      37.77345022
  2 103 73      39.54001363       0.01000000      37.54001363
  2 102 73      39.00000000       0.01000000      37.00000000
  2 101 73      39.00000000       0.01000000      37.00000000
  2 101 74      39.00000000       0.01000000      37.00000000
  2 101 75      37.78706654       0.01000000      35.78706654
  2 101 76      34.00000000       0.01000000      32.00000000
  2 101 77      34.00000000       0.01000000      32.00000000
  2 100 77      34.00000000       0.01000000      32.00000000
  2 100 78      34.00000000       0.01000000      32.00000000
  2 100 79      32.73773198       0.01000000      30.73773198
  2 100 80      29.00000000       0.01000000      27.00000000
  2 100 81      29.00000000       0.01000000      27.00000000
  2 100 82      29.00000000       0.01000000      27.00000000
  2 100 83      29.00000000       0.01000000      27.00000000
  2 99 83      29.00000000       0.01000000      27.00000000
  2 99 84      29.00000000       0.01000000      27.00000000
  2 99 85      29.00000000       0.01000000      27.00000000
  2 99 86      29.00000000       0.01000000      27.00000000
  2 99 87      28.42091253       0.01000000      26.42091253
  2 98 87      27.57556750       0.01000000      25.57556750
  2 98 88      26.48724739       0.01000000      24.48724739
  2 98 89      23.60382625       0.01000000      21.60382625
  2 98 90      22.79032620       0.01000000      20.79032620
  2 98 91      22.36796415       0.01000000      20.36796415
  2 97 91      21.95393823       0.01000000      19.95393823
  2 97 92      21.13248387       0.01000000      19.13248387
  2 97 93      20.57224172       0.01000000      18.57224172
  2 96 93      20.12466323       0.01000000      18.12466323
  2 96 94      18.61967189       0.01000000      16.61967189
  2 96 95      17.94249796       0.01000000      15.94249796
  2 95 95      17.57941830       0.01000000      15.57941830
  2 95 96      17.13739554       0.01000000      15.13739554
  2 95 97      16.38006816       0.01000000      14.38006816
  2 95 98      15.83194954       0.01000000      13.83194954
  2 94 98      15.45823336       0.01000000      13.45823336
  2 94 99      14.88939926       0.01000000      12.88939926
  2 94 100      14.13218276       0.01000000      12.13218276
  2 94 101      13.55249946       0.01000000      11.55249946
  2 93 101      12.89711838       0.01000000      10.89711838
  2 93 102      12.70693187       0.01000000      10.70693187
  2 94 102      12.50406843       0.01000000      10.50406843
  2 93 103      12.22260493       0.01000000      10.22260493
  2 94 103      12.01807344       0.01000000      10.01807344
  2 94 104      11.76843798       0.01000000       9.76843798
  2 94 105      11.35090126       0.01000000       9.35090126
  2 94 106      10.94358090       0.01000000       8.94358090
  2 94 107      10.54480908       0.01000000       8.54480908
  2 94 108      10.14553111       0.01000000       8.14553111
  2 94 109       9.74561171       0.01000000       7.74561171
  2 94 110       9.34618879       0.01000000       7.34618879
  2 94 111       8.94165159       0.01000000       6.94165159
  2 94 112       8.53870289       0.01000000       6.53870289
  2 94 113       8.13896474       0.01000000       6.13896474
  2 94 114       7.72374446       0.01000000       5.72374446
  2 94 115       7.30906369       0.01000000       5.30906369
  2 94 116       6.89836918       0.01000000       4.89836918
  2 94 117       6.54598711       0.01000000       4.54598711
  2 95 117       6.28057901       0.01000000       4.28057901
  2 95 118       5.95858908       0.01000000       3.95858908
  2 96 118       5.72323600       0.01000000       3.72323600
  2 96 119       5.52006798       0.01000000       3.52006798
  2 95 119       5.31598586       0.01000000       3.31598586
  2 95 120       5.01435614       0.01000000       3.01435614
  2 95 121       4.73737123       0.01000000       2.73737123
  2 94 121       4.44361616       0.01000000       2.44361616
  2 94 122       3.96314243       0.01000000       1.96314243
  2 94 123       3.55122840       0.01000000       1.55122840
  2 94 124       3.17910004       0.01000000       1.17910004
  2 95 124       2.93941863       0.01000000       0.93941863
  2 95 125       2.62609260       0.01000000       0.62609260
  2 96 125       2.37331069       0.01000000       0.37331069
  2 96 126       2.13758356       0.01000000       0.13758356
  2 96 127       1.75623783       0.01000000      -0.24376217
  2 95 127       1.52838979       0.01000000      -0.47161021
  2 95 128       1.22956760       0.01000000      -0.77043240
  2 95 129       0.93551872       0.01000000      -1.06448128
  2 94 129       0.65865408       0.01000000      -1.34134592
END period  1

