BEGIN options
  SAVE_FLOWS
END options

BEGIN dimensions
  MAXBOUND  173
END dimensions

BEGIN period  1
  2 114 2     168.04203506       0.01000000     166.54203506
  2 114 3     164.29048240       0.01000000     162.79048240
  2 113 5     153.23456211       0.01000000     151.73456211
  2 113 6     151.70721218       0.01000000     150.20721218
  2 113 7     150.18399839       0.01000000     148.68399839
  2 113 8     148.66134339       0.01000000     147.16134339
  2 113 9     147.24400181       0.01000000     145.74400181
  2 112 9     145.80350672       0.01000000     144.30350672
  2 111 9     144.22436109       0.01000000     142.72436109
  2 110 10     142.19014871       0.01000000     140.69014871
  2 110 11     141.10638580       0.01000000     139.60638580
  4 109 11     140.00723562       0.01000000     138.50723562
  2 109 12     138.88169841       0.01000000     137.38169841
  4 108 12     138.07334368       0.01000000     136.57334368
  4 108 13     136.67513154       0.01000000     135.17513154
  2 108 14     135.13382332       0.01000000     133.63382332
  2 108 15     133.57283854       0.01000000     132.07283854
  2 108 16     132.04467624       0.01000000     130.54467624
  2 107 16     131.16109970       0.01000000     129.66109970
  2 107 17     128.61484130       0.01000000     127.11484130
  2 106 17     126.82904886       0.01000000     125.32904886
  2 105 17     124.79638336       0.01000000     123.29638336
  2 105 18     124.24067664       0.01000000     122.74067664
  2 104 18     123.46900551       0.01000000     121.96900551
  2 104 19     122.73685372       0.01000000     121.23685372
  2 103 19     122.07951906       0.01000000     120.57951906
  2 103 20     121.28723336       0.01000000     119.78723336
  4 102 20     120.57535499       0.01000000     119.07535499
  2 102 21     118.61923647       0.01000000     117.11923647
  4 101 21     117.21459792       0.01000000     115.71459792
  4 101 22     114.07225657       0.01000000     112.57225657
  2 101 23     113.02193316       0.01000000     111.52193316
  2 101 24     111.97449169       0.01000000     110.47449169
  2 101 25     110.91222232       0.01000000     109.41222232
  2 101 26     108.34521722       0.01000000     106.84521722
  2 101 27     107.32580708       0.01000000     105.82580708
  2 100 27     106.44839777       0.01000000     104.94839777
  2 100 28     104.14000000       0.01000000     102.64000000
  2 100 29     102.74621031       0.01000000     101.24621031
  2 99 29      98.77507362       0.01000000      97.27507362
  2 99 30      97.92577795       0.01000000      96.42577795
  2 99 31      96.88494487       0.01000000      95.38494487
  2 99 32      96.06939558       0.01000000      94.56939558
  2 100 32      95.66556112       0.01000000      94.16556112
  2 100 33      95.25068191       0.01000000      93.75068191
  2 100 34      94.00000000       0.01000000      92.50000000
  2 100 35      94.00000000       0.01000000      92.50000000
  2 100 36      94.00000000       0.01000000      92.50000000
  2 101 36      94.00000000       0.01000000      92.50000000
  2 101 37      92.88757108       0.01000000      91.38757108
  2 101 38      89.51266463       0.01000000      88.01266463
  2 101 39      89.35496955       0.01000000      87.85496955
  2 102 39      89.43136076       0.01000000      87.93136076
  2 102 40      88.71335339       0.01000000      87.21335339
  2 102 41      86.90558685       0.01000000      85.40558685
  2 102 42      83.28999461       0.01000000      81.78999461
  2 102 43      81.84114417       0.01000000      80.34114417
  2 103 43      80.97671431       0.01000000      79.47671431
  2 103 44      79.21076971       0.01000000      77.71076971
  2 103 45      78.40735639       0.01000000      76.90735639
  2 103 46      77.49955801       0.01000000      75.99955801
  2 104 46      76.65428023       0.01000000      75.15428023
  2 104 47      75.27598026       0.01000000      73.77598026
  2 104 48      73.24893055       0.01000000      71.74893055
  2 105 48      70.36109092       0.01000000      68.86109092
  2 105 49      70.02804742       0.01000000      68.52804742
  2 105 50      68.38132875       0.01000000      66.88132875
  2 105 51      66.40207751       0.01000000      64.90207751
  2 105 52      63.53362036       0.01000000      62.03362036
  2 105 53      63.86434589       0.01000000      62.36434589
  2 105 54      64.39603974       0.01000000      62.89603974
  2 105 55      63.57968791       0.01000000      62.07968791
  2 105 56      61.68510680       0.01000000      60.18510680
  2 105 57      59.88907525       0.01000000      58.38907525
  2 106 57      59.36000000       0.01000000      57.86000000
  2 106 58      58.74277879       0.01000000      57.24277879
  2 106 59      57.68900565       0.01000000      56.18900565
  2 105 59      56.94792412       0.01000000      55.44792412
  2 105 60      55.94936186       0.01000000      54.44936186
  2 105 61      53.61994561       0.01000000      52.11994561
  2 105 62      52.85194792       0.01000000      51.35194792
  2 105 63      52.09552147       0.01000000      50.59552147
  2 105 64      51.46883689       0.01000000      49.96883689
  2 104 64      51.09202027       0.01000000      49.59202027
  2 104 65      50.59369926       0.01000000      49.09369926
  2 104 66      49.42420057       0.01000000      47.92420057
  2 104 67      49.39284224       0.01000000      47.89284224
  2 104 68      48.85537587       0.01000000      47.35537587
  2 103 68      47.96933427       0.01000000      46.46933427
  2 103 69      46.67558961       0.01000000      45.17558961
  2 103 70      44.00000000       0.01000000      42.50000000
  2 103 71      43.28719213       0.01000000      41.78719213
  2 103 72      40.26127107       0.01000000      38.76127107
  2 103 73      39.18612763       0.01000000      37.68612763
  2 102 73      39.56652833       0.01000000      38.06652833
  2 102 74      39.70586317       0.01000000      38.20586317
  2 101 74      39.78783204       0.01000000      38.28783204
  2 101 75      38.64596155       0.01000000      37.14596155
  2 101 76      34.51435236       0.01000000      33.01435236
  2 101 77      34.70896911       0.01000000      33.20896911
  2 101 78      34.80940739       0.01000000      33.30940739
  2 100 78      34.81574215       0.01000000      33.31574215
  2 100 79      33.61034523       0.01000000      32.11034523
  2 100 80      32.28521495       0.01000000      30.78521495
  2 100 81      30.96885424       0.01000000      29.46885424
  2 100 82      29.01213080       0.01000000      27.51213080
  2 100 83      29.03667718       0.01000000      27.53667718
  2 100 84      29.05217828       0.01000000      27.55217828
  2 99 84      29.06452482       0.01000000      27.56452482
  2 99 85      29.08609344       0.01000000      27.58609344
  2 99 86      29.11144920       0.01000000      27.61144920
  2 99 87      28.49471615       0.01000000      26.99471615
  2 99 88      27.76497286       0.01000000      26.26497286
  2 98 88      27.12870336       0.01000000      25.62870336
  2 98 89      25.92605383       0.01000000      24.42605383
  2 98 90      24.60812141       0.01000000      23.10812141
  2 98 91      23.74516884       0.01000000      22.24516884
  2 97 91      23.07050555       0.01000000      21.57050555
  2 97 92      21.91420204       0.01000000      20.41420204
  2 97 93      20.86124977       0.01000000      19.36124977
  2 96 93      20.12909809       0.01000000      18.62909809
  2 96 94      18.12791938       0.01000000      16.62791938
  2 96 95      17.51806027       0.01000000      16.01806027
  2 96 96      17.15037986       0.01000000      15.65037986
  2 95 96      16.84340689       0.01000000      15.34340689
  2 95 97      16.29376421       0.01000000      14.79376421
  2 95 98      15.75430825       0.01000000      14.25430825
  2 94 98      15.44631007       0.01000000      13.94631007
  2 94 99      15.06972019       0.01000000      13.56972019
  2 94 100      14.45414379       0.01000000      12.95414379
  2 94 101      13.87589724       0.01000000      12.37589724
  2 93 101      13.47212581       0.01000000      11.97212581
  2 93 102      13.38309404       0.01000000      11.88309404
  2 94 102      13.09160824       0.01000000      11.59160824
  2 94 103      12.60001206       0.01000000      11.10001206
  2 93 103      12.30746193       0.01000000      10.80746193
  2 94 104      11.95290999       0.01000000      10.45290999
  2 94 105      11.35173333       0.01000000       9.85173333
  2 94 106      10.76484656       0.01000000       9.26484656
  2 94 107      10.19165060       0.01000000       8.69165060
  2 94 108       9.61789300       0.01000000       8.11789300
  2 94 109       9.04277443       0.01000000       7.54277443
  2 94 110       8.47006228       0.01000000       6.97006228
  2 94 111       7.88885895       0.01000000       6.38885895
  2 94 112       7.51193384       0.01000000       6.01193384
  4 95 112       7.22525313       0.01000000       5.72525313
  2 95 113       6.57117569       0.01000000       5.07117569
  2 94 113       6.36529447       0.01000000       4.86529447
  2 94 114       6.05691056       0.01000000       4.55691056
  2 94 115       5.62881440       0.01000000       4.12881440
  2 94 116       5.20618808       0.01000000       3.70618808
  2 94 117       4.85024511       0.01000000       3.35024511
  2 95 117       4.58282941       0.01000000       3.08282941
  2 95 118       4.26909052       0.01000000       2.76909052
  2 96 118       4.01956642       0.01000000       2.51956642
  2 96 119       3.74804163       0.01000000       2.24804163
  2 96 120       3.51774830       0.01000000       2.01774830
  2 95 120       3.25670246       0.01000000       1.75670246
  2 95 121       2.95333735       0.01000000       1.45333735
  2 94 121       2.63778582       0.01000000       1.13778582
  2 94 122       2.18038207       0.01000000       0.68038207
  2 94 123       1.75815864       0.01000000       0.25815864
  2 94 124       1.38383125       0.01000000      -0.11616875
  2 95 124       1.13909708       0.01000000      -0.36090292
  2 95 125       0.54072812       0.01000000      -0.95927188
  2 96 125       0.49747826       0.01000000      -1.00252174
  2 96 126       0.45555639       0.01000000      -1.04444361
  2 96 127       0.38144047       0.01000000      -1.11855953
  2 95 127       0.34290578       0.01000000      -1.15709422
  2 95 128       0.30025536       0.01000000      -1.19974464
  2 95 129       0.24156652       0.01000000      -1.25843348
  2 94 129       0.19625143       0.01000000      -1.30374857
  2 93 130       0.11876375       0.01000000      -1.38123625
END period  1

