BEGIN options
  SAVE_FLOWS
END options

BEGIN dimensions
  MAXBOUND  31
END dimensions

BEGIN period  1
  2 114 32     120.00000000
  2 115 33     120.00000000
  2 116 34     120.00000000
  2 117 35     120.00000000
  2 118 36     120.00000000
  2 119 36     120.00000000
  2 119 37     120.00000000
  2 120 38     120.00000000
  2 120 39     120.00000000
  2 120 40     120.00000000
  2 120 41     120.00000000
  2 121 42     120.00000000
  2 122 43     120.00000000
  2 123 44     120.00000000
  2 123 45     120.00000000
  4 113 32     120.00000000
  4 114 33     120.00000000
  4 114 34     120.00000000
  4 115 35     120.00000000
  4 116 36     120.00000000
  4 117 37     120.00000000
  4 118 37     120.00000000
  4 119 37     120.00000000
  4 120 38     120.00000000
  4 120 41     120.00000000
  4 120 42     120.00000000
  4 121 39     120.00000000
  4 121 40     120.00000000
  4 121 43     120.00000000
  4 121 44     120.00000000
  4 122 45     120.00000000
END period  1

