BEGIN options
  SAVE_FLOWS
END options

BEGIN dimensions
  MAXBOUND  16
END dimensions

BEGIN period  1
  3 113 32     120.00000000
  3 114 33     120.00000000
  3 114 34     120.00000000
  3 115 35     120.00000000
  3 116 36     120.00000000
  3 117 37     120.00000000
  3 118 37     120.00000000
  3 119 37     120.00000000
  3 120 38     120.00000000
  3 120 41     120.00000000
  3 120 42     120.00000000
  3 121 39     120.00000000
  3 121 40     120.00000000
  3 121 43     120.00000000
  3 121 44     120.00000000
  3 122 45     120.00000000
END period  1

