BEGIN options
  SAVE_FLOWS
END options

BEGIN dimensions
  MAXBOUND  16
END dimensions

BEGIN period  1
  4 113 32     120.00000000
  4 114 33     120.00000000
  4 114 34     120.00000000
  4 115 35     120.00000000
  4 116 36     120.00000000
  4 117 37     120.00000000
  4 118 37     120.00000000
  4 119 37     120.00000000
  4 120 38     120.00000000
  4 120 41     120.00000000
  4 120 42     120.00000000
  4 121 39     120.00000000
  4 121 40     120.00000000
  4 121 43     120.00000000
  4 121 44     120.00000000
  4 122 45     120.00000000
END period  1

