BEGIN options
  SAVE_FLOWS
END options

BEGIN dimensions
  MAXBOUND  87
END dimensions

BEGIN period  1
  1 2473     135.25041678
  1 2474     135.78505783
  1 2350     135.58777404
  1 2355     129.95232324
  1 2359     129.25482340
  1 2356     127.42880390
  1 2481     123.25628861
  1 2480     121.92909752
  1 2486     120.61186221
  1 2487     119.09826898
  1 2366     117.89512218
  1 2369     115.99578517
  1 2370     113.21886011
  1 2375     113.95091229
  1 2376     113.11275595
  1 2374     111.20106655
  1 2377     109.98464672
  1 2379     109.40868689
  1 2380     109.23518550
  1 2495     109.04919308
  1 2500     108.93192690
  1 2388     107.60088579
  1 2386     106.38398938
  1 2387     105.77967576
  1 2389     104.90786444
  1 2390     103.24960117
  1 2391     100.84517937
  1 2385     100.79357655
  1 2396     100.75791980
  1 2383     100.72871412
  1 2394     100.67401814
  1 2395     100.40142875
  1 2398      98.81862839
  1 2401      97.44139431
  1 2400      97.05176285
  1 2399      93.76929931
  1 2404      88.60685111
  1 2267      85.25580635
  1 2265      84.46394374
  1 2266      83.91453967
  1 2268      81.84996377
  1 2405      81.53685425
  1 2408      81.31682416
  1 2271      81.07174107
  1 2272      80.52771535
  1 2270      78.64750806
  1 2269      78.29318688
  1 2281      78.01977012
  1 2282      77.01423035
  1 2276      75.53035356
  1 2285      72.87914338
  1 2279      72.78456204
  1 2286      72.66651274
  1 2291      72.55369391
  1 2280      72.44429103
  1 2278      71.98727131
  1 2289      70.47497022
  1 2290      69.72763562
  1 2187      67.76942922
  1 2185      64.72291085
  1 2188      63.73591888
  1 2189      63.71638073
  1 2191      63.53577728
  1 2202      63.25829932
  1 2200      62.06957178
  1 2201      61.78588336
  1 2195      61.41436443
  1 2193      61.58967624
  1 2196      61.21578913
  1 2198      60.33665793
  1 2199      59.60778392
  1 2197      58.76638180
  1 2205      57.93452971
  1 2123      54.71211070
  1 2124      53.23480898
  1 2209      52.37384962
  1 2206      52.01141462
  1 2127      51.22802494
  1 2125      48.72188363
  1 2126      46.45929072
  1 2137      45.52686200
  1 2131      44.00000000
  1 2132      44.00000000
  1 2130      44.00000000
  1 2133      43.30689413
  1 2037      41.73730657
  1 2038      39.93041245
END period  1

