BEGIN options
  SAVE_FLOWS
END options

BEGIN dimensions
  MAXBOUND  163
END dimensions

BEGIN period  1
  1 1579       0.00000000
  1 1575       0.00000000
  1 1576       0.00000000
  1 1585       0.00000000
  1 1587       0.00000000
  1 1580       0.00000000
  1 1583       0.00000000
  1 1581       0.00000000
  1 1698       0.00000000
  1 1696       0.00000000
  1 1697       0.00000000
  1 1699       0.00000000
  1 1691       0.00000000
  1 1692       0.00000000
  1 1694       0.00000000
  1 1693       0.00000000
  1 1843       0.00000000
  1 1841       0.00000000
  1 1848       0.00000000
  1 1846       0.00000000
  1 1855       0.00000000
  1 1849       0.00000000
  1 1842       0.00000000
  1 1844       0.00000000
  1 2005       0.00000000
  1 1584       0.00000000
  1 1586       0.00000000
  1 1847       0.00000000
  1 2092       0.00000000
  1 1430       0.00000000
  1 1429       0.00000000
  1 1573       0.00000000
  1 1433       0.00000000
  1 1588       0.00000000
  1 1593       0.00000000
  1 1574       0.00000000
  1 1582       0.00000000
  1 1577       0.00000000
  1 1578       0.00000000
  1 1671       0.00000000
  1 1674       0.00000000
  1 1675       0.00000000
  1 1678       0.00000000
  1 1677       0.00000000
  1 1676       0.00000000
  1 1706       0.00000000
  1 1695       0.00000000
  1 1703       0.00000000
  1 1705       0.00000000
  1 1708       0.00000000
  1 1687       0.00000000
  1 1688       0.00000000
  1 1700       0.00000000
  1 1690       0.00000000
  1 1840       0.00000000
  1 1845       0.00000000
  1 1839       0.00000000
  1 1853       0.00000000
  1 1858       0.00000000
  1 1859       0.00000000
  1 1856       0.00000000
  1 1857       0.00000000
  1 1861       0.00000000
  1 1850       0.00000000
  1 2014       0.00000000
  1 2011       0.00000000
  1 2007       0.00000000
  1 2008       0.00000000
  1 2016       0.00000000
  1 2004       0.00000000
  1 2013       0.00000000
  1 2006       0.00000000
  1 2093       0.00000000
  1 68       0.00000000
  1 57       0.00000000
  1 70       0.00000000
  1 69       0.00000000
  1 85       0.00000000
  1 98       0.00000000
  1 99       0.00000000
  1 117       0.00000000
  1 136       0.00000000
  1 119       0.00000000
  1 153       0.00000000
  1 139       0.00000000
  1 156       0.00000000
  1 172       0.00000000
  1 197       0.00000000
  1 174       0.00000000
  1 199       0.00000000
  1 225       0.00000000
  1 227       0.00000000
  1 226       0.00000000
  1 71       0.00000000
  1 73       0.00000000
  1 118       0.00000000
  1 137       0.00000000
  1 154       0.00000000
  1 138       0.00000000
  1 155       0.00000000
  1 173       0.00000000
  1 198       0.00000000
  1 45       0.00000000
  1 52       0.00000000
  1 54       0.00000000
  1 53       0.00000000
  1 83       0.00000000
  1 86       0.00000000
  1 84       0.00000000
  1 96       0.00000000
  1 100       0.00000000
  1 97       0.00000000
  1 116       0.00000000
  1 115       0.00000000
  1 120       0.00000000
  1 114       0.00000000
  1 134       0.00000000
  1 135       0.00000000
  1 140       0.00000000
  1 158       0.00000000
  1 152       0.00000000
  1 157       0.00000000
  1 170       0.00000000
  1 169       0.00000000
  1 171       0.00000000
  1 196       0.00000000
  1 175       0.00000000
  1 200       0.00000000
  1 284       0.00000000
  1 281       0.00000000
  1 282       0.00000000
  1 224       0.00000000
  1 228       0.00000000
  1 255       0.00000000
  1 256       0.00000000
  1 252       0.00000000
  1 253       0.00000000
  1 254       0.00000000
  1 72       0.00000000
  1 74       0.00000000
  1 58       0.00000000
  1 55       0.00000000
  1 87       0.00000000
  1 88       0.00000000
  1 89       0.00000000
  1 56       0.00000000
  1 202       0.00000000
  1 229       0.00000000
  1 176       0.00000000
  1 201       0.00000000
  1 178       0.00000000
  1 231       0.00000000
  1 179       0.00000000
  1 203       0.00000000
  1 177       0.00000000
  1 257       0.00000000
  1 259       0.00000000
  1 258       0.00000000
  1 260       0.00000000
  1 289       0.00000000
  1 291       0.00000000
  1 285       0.00000000
  1 286       0.00000000
END period  1

