BEGIN options
  PRINT_OPTION  summary
  COMPLEXITY  moderate
END options

