BEGIN options
END options

BEGIN timing
  TDIS6  first2D_mf6.tdis
END timing

BEGIN models
  gwf6  Modele_raffine.nam  Modele_raffine
END models

BEGIN exchanges
END exchanges

BEGIN solutiongroup  1
  ims6  first2D_mf6.ims  Modele_raffine
END solutiongroup  1

