BEGIN options
  XORIGIN  6.60000000E+05
  YORIGIN  6.15000000E+06
END options

BEGIN dimensions
  NLAY  1
  NCPL  3312
  NVERT  4078
END dimensions

BEGIN griddata
  top
    INTERNAL  FACTOR  1.0
        38.00000000      30.50000000       9.50000000      44.00000000      48.50000000       1.00000000      27.50000000       2.33333302      49.50000000      55.50000000       1.64999998      51.50000000      14.00000000       1.99298203      43.50000000      52.50000000      58.00000000      58.50000000      48.50000000      44.00000000
        50.00000000      26.00000000      45.00000000      43.00000000       0.67500001      46.50000000      24.50000000      -2.83888888      36.00000000      27.00000000       7.00000000      38.50000000      40.00000000      37.50000000      41.50000000      37.00000000      46.50000000      15.50000000      32.50000000      48.00000000
        -3.04999995      39.50000000      -2.09999990      19.00000000       1.60000002      43.00000000      14.50000000       1.25000000       3.00000000       0.20000000       0.00624996       1.64130402       2.98780489       1.10969400       1.00000000       1.00000000       1.61801195       1.20454502       2.50000000       3.00000000
         3.00000000       2.50000000      -1.32500005       2.50000000       1.50000000       2.00000000       1.00000000       2.49127889       2.04486203       2.50000000       1.00000000       1.12111795       1.00000000       1.00000000       2.00000000       0.30000001       2.00000000      -0.60000002       1.00000000      -1.10000002
         2.00000000      -1.23333299       5.00000000       1.00000000       1.10927904       1.26265299       1.00000000       1.00000000       7.00000000       1.00000000       2.00000000      -1.50000000       2.00000000       0.58888888       1.00000000      36.50000000       1.00000000       1.00000000       1.00000000       1.00000000
         1.00000000       1.00000000       1.00000000       1.00000000       1.00000000       1.00000000       1.00000000       2.00000000       1.00000000       1.50000000       0.29054049      -0.30500001      79.50000000      15.50000000       2.00000000       1.00000000       1.00000000       1.18263900       1.26515198       2.00000000
         1.00000000       1.00000000       1.00000000       1.00000000       0.51499999       1.00000000       1.50000000      -0.43181819       1.50000000      -1.33333302      30.00000000      11.00000000       6.50000000       2.00000000       1.00000000       1.00000000       1.00000000       1.00000000       1.00000000       1.00000000
         1.00000000       2.00000000      -2.09999990       2.00000000      -2.28999996       1.00000000       1.50000000       1.00000000      13.00000000       4.00000000       2.00000000       1.00000000       1.00000000       1.00000000       1.00000000       1.00000000       1.00000000       1.00000000       1.00000000       0.55833328
         0.48124999       1.00000000      -0.22962970      -0.43333331      47.50000000      25.00000000       5.50000000       2.50000000       1.50000000       1.00000000       1.00000000       1.00000000       1.00000000       1.00000000       1.50000000       1.28125000       1.00000000       1.00000000       1.00000000       1.00000000
         1.00000000       1.00000000       1.00000000      -1.16999996      -1.42499995       1.00000000       1.00000000       1.00000000       1.00000000      32.50000000      20.50000000       9.00000000       4.00000000       2.00000000       2.00000000       1.00000000       1.00000000       1.00000000       1.00000000       1.00000000
         1.00000000       1.00000000       1.00000000       1.00000000       1.00000000       1.00000000       1.00000000       1.00000000       1.00000000       0.53333330       1.00000000       0.52222222     106.00000000      66.50000000      64.50000000      55.50000000      38.50000000      28.50000000      19.00000000      10.00000000
         8.00000000       5.00000000       2.00000000       1.00000000       1.00000000       1.00000000       1.00000000       1.00000000       1.00000000       1.00000000       1.00000000       1.00000000       1.00000000       0.50555563       1.00000000       0.39333329       1.00000000      -0.38000000       1.00000000      -0.44000009
        74.00000000      52.50000000      53.50000000      48.00000000      35.00000000      24.50000000      17.00000000      12.00000000       9.00000000       6.00000000       2.00000000       1.00000000       1.00000000       1.00000000       1.00000000       1.00000000       1.00000000       1.00000000       1.00000000       1.00000000
         1.00000000      -1.61000001       1.00000000      -2.62500000       1.00000000      -3.29999995       1.00000000      -3.28600001      56.00000000      43.50000000      43.50000000      39.00000000      28.00000000      21.00000000      15.00000000      12.50000000       9.00000000       8.00000000       3.00000000       2.00000000
         1.00000000       1.00000000       1.00000000       1.00000000       1.00000000       1.00000000       1.00000000       1.00000000       1.00000000      -3.13000011       1.00000000      -2.28846097       2.00000000      -2.37500000       2.00000000      -2.50000000      48.00000000      44.50000000      39.00000000      36.50000000
        41.50000000      39.00000000      36.00000000      35.00000000      30.50000000      33.50000000      24.00000000      19.50000000      18.00000000      14.50000000      11.00000000       7.50000000       3.00000000       2.50000000       3.00000000       2.00000000       2.00000000       2.00000000       2.00000000       2.00000000
         2.00000000       2.00000000       2.00000000      -2.60500002       2.00000000       2.00000000       2.00000000      32.00000000      82.00000000      44.50000000      29.50000000      30.00000000      33.00000000      33.00000000      29.50000000      28.50000000      33.00000000      30.50000000      37.50000000      34.00000000
        30.50000000      34.50000000      28.50000000      32.50000000      33.00000000      27.50000000      32.00000000      29.00000000      28.00000000      27.00000000      32.00000000      30.50000000      26.00000000      24.50000000      24.00000000      22.50000000      23.00000000      23.50000000      21.00000000      20.50000000
        29.50000000      24.00000000      24.00000000      26.00000000      20.50000000      23.00000000      24.50000000      19.50000000      23.00000000      21.50000000      19.00000000      22.00000000      19.00000000      19.00000000      22.00000000      20.50000000      19.00000000      23.00000000      21.00000000      19.00000000
        19.50000000      19.50000000      19.00000000      18.50000000      19.00000000      15.00000000      12.00000000      10.00000000       5.00000000       4.50000000       4.00000000       2.00000000       2.00000000       2.00000000       3.50000000       2.00000000       2.00000000       2.00000000       2.00000000       2.00000000
         2.00000000       2.00000000       1.00000000       2.00000000       1.50000000       2.00000000       2.00000000       3.00000000       3.00000000       2.00000000       3.00000000       2.50000000       3.00000000       1.50000000       2.00000000       2.00000000       1.50000000      67.00000000      44.50000000      36.50000000
        66.50000000      48.50000000      30.00000000      29.50000000      33.50000000      33.00000000      28.50000000      27.00000000      30.50000000      28.50000000      37.00000000      33.00000000      25.50000000      24.00000000      27.50000000      26.00000000      24.00000000      29.00000000      29.00000000      21.50000000
        20.00000000      23.00000000      21.00000000      20.50000000      20.00000000      21.00000000      22.00000000      24.50000000      24.50000000      20.50000000      20.50000000      22.50000000      22.00000000      19.50000000      16.00000000      21.00000000      19.50000000      21.00000000      19.00000000      15.00000000
        15.00000000      19.00000000      18.50000000      15.50000000      13.00000000      18.50000000      20.00000000      17.00000000      17.00000000      17.00000000      17.00000000      18.50000000      15.00000000      18.50000000      18.50000000      17.00000000      16.50000000      17.00000000      15.00000000      18.50000000
        16.50000000      17.50000000      17.00000000      14.00000000      14.50000000      13.50000000      12.00000000      11.00000000      12.00000000      11.00000000       9.00000000       7.00000000       6.00000000       5.00000000       6.00000000       6.00000000       6.00000000       4.00000000       4.00000000       5.00000000
         5.00000000       6.00000000       5.50000000       5.00000000       5.00000000       5.00000000       5.00000000       4.00000000       3.50000000       2.50000000       3.50000000       4.00000000       5.00000000       4.00000000       5.00000000       5.00000000       4.00000000       4.00000000       4.00000000       4.00000000
         3.00000000       3.00000000       3.00000000       3.00000000       3.00000000       3.00000000       3.00000000       3.00000000       4.00000000       3.00000000       3.00000000       2.50000000       3.00000000       3.00000000       2.00000000       3.00000000       2.00000000       2.00000000       1.50000000       1.00000000
         1.50000000     174.00000000     133.50000000      72.50000000      55.00000000      47.00000000      33.50000000      28.00000000      19.50000000      15.50000000      16.00000000      17.50000000      17.00000000      15.50000000      16.00000000      14.00000000      14.00000000      15.00000000      14.00000000      12.50000000
        13.00000000      13.00000000      13.00000000      12.50000000      13.00000000      13.50000000      13.00000000      13.00000000      12.00000000      13.00000000      12.00000000      11.00000000      12.50000000      11.00000000      12.00000000      12.00000000      10.00000000      11.00000000      11.00000000      11.00000000
         9.00000000       8.00000000      10.00000000       9.00000000       8.00000000       8.00000000       8.50000000       8.00000000       7.00000000       8.00000000       8.00000000       8.00000000       8.00000000       8.00000000       8.00000000       8.00000000       7.50000000       7.00000000       7.00000000       7.00000000
         8.00000000       7.00000000       7.00000000       6.00000000       7.00000000       6.00000000       7.00000000       7.00000000       7.00000000       6.50000000       6.00000000       6.00000000       6.00000000       6.00000000       6.00000000       4.50000000       5.00000000       4.00000000       4.00000000       4.00000000
         3.50000000       3.00000000       2.00000000       2.00000000       2.00000000       2.00000000       1.00000000       1.50000000       1.50000000       0.56500000       0.56999999     157.00000000     130.50000000     111.00000000      79.00000000      84.00000000      65.50000000      45.00000000      49.00000000      39.50000000
        29.50000000      25.50000000      13.50000000      11.00000000      11.50000000      11.00000000      11.00000000      11.00000000      10.50000000      10.50000000      10.00000000      10.00000000      10.00000000      10.50000000      10.00000000       9.50000000       9.00000000      10.00000000       9.00000000       9.00000000
         9.00000000       9.00000000       9.00000000       9.00000000       8.00000000       8.00000000       8.00000000       8.00000000       7.50000000       9.00000000       8.00000000       8.00000000       8.00000000       8.00000000       8.00000000       8.00000000       7.00000000       7.00000000       7.00000000       6.00000000
         7.00000000       6.00000000       4.00000000       3.00000000       2.00000000       2.00000000       1.00000000       2.00000000       1.00000000       0.54545462       1.50000000       1.50000000       1.00000000     143.50000000      98.50000000     102.50000000      77.00000000      85.50000000      70.00000000      48.50000000
        42.00000000      33.50000000      25.00000000      23.00000000      19.00000000      15.00000000      10.00000000       9.00000000       8.00000000       6.00000000       5.00000000       4.00000000       2.00000000       2.00000000       1.00000000       2.00000000       1.00000000       1.00000000       1.00000000       1.00000000
         1.00000000     194.50000000     168.50000000     146.50000000     111.50000000     109.50000000     102.50000000      86.00000000      70.00000000      59.50000000      52.50000000      46.00000000      29.50000000      28.00000000      22.00000000      16.00000000      15.00000000      12.50000000      11.00000000       9.00000000
         7.00000000       6.00000000       5.00000000       3.00000000       2.00000000       1.00000000       2.00000000       1.00000000       1.00000000       1.00000000       1.00000000       1.00000000     218.50000000     154.00000000     147.00000000     118.50000000     123.50000000     115.50000000      94.00000000      96.00000000
        76.50000000      67.00000000      61.50000000      53.00000000      48.00000000      31.50000000      28.00000000      20.00000000      16.50000000      15.00000000      14.50000000      17.00000000      16.00000000      14.00000000      13.00000000      16.00000000      15.00000000      12.50000000      11.00000000       9.00000000
         7.00000000       6.00000000       5.00000000       7.00000000       6.00000000       5.00000000       4.00000000       5.50000000       4.00000000       2.00000000       1.00000000       2.00000000       1.00000000       1.00000000      -2.60416698       1.00000000      -1.94583297       1.00000000      -1.05714297       1.00000000
        -1.05428600     181.50000000     217.50000000     170.50000000     158.50000000     140.50000000     143.50000000     134.50000000     103.00000000     114.50000000      99.50000000      87.00000000      79.50000000      73.50000000      65.00000000      59.50000000      50.00000000      42.00000000      26.50000000      24.00000000
        22.50000000      25.00000000      23.00000000      21.00000000      20.00000000      23.00000000      22.00000000      19.50000000      19.00000000      21.00000000      20.50000000      22.00000000      20.50000000      20.00000000      19.50000000      17.00000000      19.00000000      19.00000000      17.00000000      17.00000000
        17.50000000      16.50000000      19.00000000      17.00000000      18.50000000      18.00000000      17.50000000      19.50000000      19.50000000      16.50000000      17.00000000      17.00000000      15.50000000      16.50000000      16.00000000      16.00000000      16.50000000      16.00000000      16.50000000      15.00000000
        15.00000000      16.50000000      15.50000000      15.00000000      14.00000000      17.00000000      16.00000000      15.50000000      13.00000000      16.00000000      14.50000000      12.00000000      12.00000000      13.50000000      12.00000000      12.00000000      11.50000000      12.50000000      11.50000000      12.50000000
        11.50000000      11.00000000      11.00000000      10.00000000      10.00000000      11.00000000      11.00000000      10.00000000      10.50000000       8.50000000       8.50000000       8.00000000       9.00000000       9.50000000       8.50000000       8.50000000       7.50000000      10.00000000       9.50000000       9.00000000
         8.00000000       7.00000000       9.00000000       8.50000000       7.00000000       7.00000000       7.00000000       7.00000000       8.00000000       8.50000000       8.50000000       6.50000000       7.00000000       5.50000000       6.50000000       6.50000000       6.00000000       5.00000000       6.50000000       6.00000000
         4.00000000       5.00000000       5.00000000       5.00000000       6.00000000       6.00000000       4.50000000       4.50000000       3.00000000       2.00000000       2.00000000       2.00000000       2.00000000       1.00000000       2.00000000       1.00000000       1.00000000      -1.03571403       1.00000000       0.20833330
         1.00000000      -2.45714307       1.00000000      -2.64000010     208.50000000     181.50000000     146.50000000     142.50000000     162.00000000     130.50000000     165.00000000     160.50000000     138.00000000     122.50000000     141.00000000     164.00000000     165.00000000     138.00000000     144.50000000     139.50000000
       145.00000000     142.50000000     132.00000000     153.00000000     123.00000000     108.50000000     111.00000000      94.00000000      77.00000000      75.00000000      68.00000000      64.50000000      57.00000000      52.00000000      49.00000000      47.00000000      45.50000000      44.00000000      46.50000000      41.00000000
        43.50000000      42.50000000      40.00000000      39.00000000      40.00000000      37.00000000      27.00000000      26.00000000      29.00000000      28.50000000      34.50000000      31.00000000      27.50000000      28.00000000      28.00000000      26.50000000      27.00000000      25.00000000      24.00000000      26.50000000
        26.00000000      29.50000000      27.00000000      24.50000000      25.00000000      24.50000000      23.50000000      25.50000000      27.50000000      24.00000000      24.00000000      25.50000000      21.00000000      24.00000000      19.50000000      24.00000000      25.00000000      25.50000000      23.00000000      20.50000000
        21.00000000      22.50000000      20.00000000      19.00000000      20.00000000      18.50000000      19.00000000      16.50000000      16.50000000      22.00000000      17.50000000      36.50000000      43.50000000      42.00000000      31.50000000      26.00000000      39.50000000      35.50000000      27.50000000      21.50000000
        29.50000000      22.00000000      30.50000000      25.50000000      13.50000000      17.50000000       8.00000000       8.00000000       7.50000000      11.50000000      13.50000000      13.00000000      24.00000000       5.50000000       8.50000000       8.00000000       7.50000000       7.00000000      22.00000000      14.00000000
         6.50000000       7.00000000       3.50000000       5.00000000       4.50000000       7.00000000       4.00000000       2.00000000       2.00000000       2.50000000       1.00000000       2.00000000       1.00000000       1.00000000       1.00000000       2.50000000       1.00000000       1.00000000       1.00000000       1.50000000
         1.00000000     211.50000000     188.00000000     190.50000000     145.00000000     113.00000000     121.00000000     138.00000000     124.50000000     117.00000000     116.50000000     119.00000000     116.50000000     114.50000000     112.00000000     113.50000000     112.00000000     123.50000000     115.00000000     115.50000000
       110.00000000     112.50000000     105.00000000     109.00000000     107.50000000     111.50000000     109.00000000     110.00000000     112.50000000     110.50000000     106.50000000     102.50000000     106.00000000     105.00000000     103.00000000     101.50000000     103.00000000     102.50000000     111.00000000     109.50000000
       101.50000000     101.00000000     101.50000000      99.00000000     104.50000000     100.00000000      98.00000000     100.00000000     104.50000000     102.00000000     100.50000000     103.50000000     102.50000000     126.00000000     106.00000000     101.50000000      99.50000000      97.50000000      99.50000000      98.00000000
       102.00000000      99.50000000      95.00000000      93.00000000      95.00000000      91.00000000      97.00000000      97.00000000      92.50000000      93.50000000      90.50000000      90.50000000      93.50000000      93.50000000      91.50000000      92.00000000      94.50000000      90.00000000      91.50000000      87.50000000
        88.00000000      88.50000000      85.00000000      86.00000000      80.50000000      76.00000000      73.00000000      68.00000000      65.00000000      62.50000000      59.00000000      61.00000000      56.50000000      55.00000000      55.00000000      54.00000000      52.50000000      50.50000000      46.00000000      52.00000000
        47.50000000      50.00000000      46.50000000      44.00000000      43.00000000      42.00000000      42.50000000      43.50000000      42.50000000      42.00000000      41.00000000      40.50000000      42.00000000      40.00000000      47.50000000      55.50000000      40.50000000      44.50000000      50.00000000      50.50000000
        41.50000000      41.50000000      39.50000000      39.00000000      41.50000000      40.50000000      39.00000000      39.00000000      49.50000000      52.50000000      39.50000000      35.50000000      39.50000000      40.50000000      32.00000000      32.00000000      44.00000000      35.50000000      46.50000000      43.00000000
        27.00000000      25.00000000      33.50000000      32.50000000      31.00000000      34.00000000      30.00000000      27.50000000      37.50000000      40.00000000      48.50000000      44.50000000      47.00000000      36.50000000      30.50000000      23.00000000      24.00000000      27.00000000      13.50000000       1.00000000
         1.00000000       3.50000000       2.00000000       2.00000000       1.50000000       1.00000000       0.08749998      -0.40625000      -1.13888896     219.50000000     150.00000000     160.50000000     142.50000000     132.50000000     138.00000000     175.00000000     131.50000000     134.50000000     130.00000000     130.00000000
       128.00000000     121.50000000     130.50000000     122.50000000     123.00000000     125.00000000     127.00000000     129.50000000     132.50000000     131.00000000     122.00000000     121.50000000     125.50000000     124.50000000     119.00000000     115.50000000     120.00000000     118.00000000     113.50000000     110.50000000
       114.50000000     113.50000000     107.00000000     106.00000000     110.00000000     109.00000000     112.00000000     110.50000000     107.50000000     105.50000000     108.00000000     106.50000000     102.50000000     101.50000000     104.50000000     103.00000000      98.50000000      97.00000000     100.00000000     101.50000000
       104.50000000     101.50000000     105.00000000     103.50000000     104.00000000      96.00000000      91.00000000      90.00000000      94.00000000      90.50000000      99.00000000      97.50000000      89.00000000      87.00000000      90.00000000      87.50000000      86.50000000      83.50000000      85.00000000      81.50000000
        93.50000000      88.50000000      83.00000000      83.50000000      82.50000000      82.00000000      83.00000000      80.50000000      80.00000000      85.50000000      82.00000000      81.50000000      80.00000000      80.00000000      78.00000000      79.00000000      74.00000000      77.00000000      75.50000000      76.50000000
        71.50000000      73.50000000      72.50000000      71.50000000      70.50000000      74.00000000      72.00000000      72.00000000      72.00000000      70.00000000      69.50000000      72.00000000      71.50000000      69.00000000      68.00000000      69.00000000      67.00000000      68.50000000      69.00000000      67.50000000
        66.00000000      66.50000000      66.00000000      65.50000000      64.00000000      62.50000000      61.00000000      61.50000000      63.00000000      62.50000000      59.50000000      59.50000000      63.00000000      61.00000000      63.00000000      62.00000000      57.50000000      80.00000000      59.00000000      47.00000000
        81.00000000      80.50000000      58.50000000      56.50000000      59.50000000      54.50000000      55.50000000      54.00000000      50.50000000      49.50000000      45.00000000      52.00000000      81.00000000      78.50000000      77.00000000      52.00000000      52.00000000      50.50000000      48.50000000      52.00000000
        51.50000000      52.50000000      53.00000000      67.50000000      64.00000000      47.00000000      47.50000000      59.00000000      54.50000000      55.00000000      61.00000000      57.00000000      52.50000000      53.00000000      54.50000000      53.50000000      49.50000000      42.50000000      35.00000000      40.50000000
        41.00000000      43.00000000      38.50000000      42.50000000      34.50000000      34.00000000      21.50000000       9.50000000       1.00000000      13.50000000       1.00000000       1.00000000       3.00000000       2.00000000       2.50000000       2.00000000       2.00000000      -1.22222197      -1.33333302      -2.00999999
       208.50000000     233.50000000     229.50000000     195.00000000     147.00000000     172.50000000     157.50000000     203.00000000     191.50000000     138.50000000     135.50000000     149.00000000     135.00000000     137.50000000     133.50000000     142.50000000     132.00000000     136.50000000     133.00000000     129.50000000
       129.50000000     132.00000000     133.00000000     132.00000000     130.50000000     131.50000000     141.50000000     141.50000000     132.50000000     133.50000000     135.00000000     135.50000000     132.50000000     134.00000000     132.00000000     128.00000000     126.50000000     129.50000000     128.50000000     126.00000000
       124.00000000     127.00000000     125.00000000     131.00000000     129.50000000     131.50000000     130.00000000     127.00000000     123.00000000     120.50000000     122.50000000     120.00000000     119.50000000     117.00000000     119.50000000     118.00000000     124.00000000     118.50000000     116.00000000     115.00000000
       116.50000000     114.50000000     115.00000000     114.00000000     114.50000000     112.50000000     117.00000000     119.00000000     110.00000000     110.00000000     114.50000000     114.50000000     110.50000000     122.50000000     122.50000000     106.50000000     107.50000000     122.50000000     116.00000000     109.50000000
       102.50000000      84.00000000      97.00000000     101.50000000      98.50000000      90.50000000      71.50000000      93.00000000      89.50000000      72.50000000      79.00000000      88.50000000      84.50000000      81.50000000      71.50000000      83.50000000      88.00000000      64.00000000      61.50000000      87.00000000
        84.50000000      84.00000000      83.00000000      71.50000000      71.00000000      88.00000000      79.00000000      75.50000000      82.50000000      74.00000000      75.00000000      75.00000000      75.00000000      73.00000000      71.50000000      66.00000000      70.00000000      67.00000000      63.00000000      59.00000000
        51.00000000      53.50000000      47.00000000      40.50000000      50.00000000      47.50000000      37.00000000      39.50000000      28.00000000      30.50000000      14.50000000      11.50000000       2.00000000       1.00000000       1.00000000       1.00000000       1.00000000       1.00000000       1.00000000       1.00000000
         1.00000000       1.00000000       1.00000000       1.00000000       1.00000000       1.00000000       1.00000000       1.50000000       2.00000000       2.00000000       2.50000000       1.50000000       1.00000000       2.00000000       1.50000000       2.00000000       1.50000000     237.50000000     154.00000000     221.00000000
       180.00000000     140.50000000     144.00000000     142.50000000     147.00000000     150.50000000     144.00000000     152.50000000     149.50000000     153.00000000     157.00000000     147.50000000     150.00000000     156.50000000     152.00000000     143.50000000     142.50000000     139.50000000     143.50000000     141.50000000
       147.00000000     146.00000000     147.50000000     148.00000000     144.00000000     140.50000000     145.50000000     144.50000000     138.00000000     137.00000000     140.00000000     138.50000000     135.50000000     133.00000000     136.00000000     135.00000000     142.50000000     137.50000000     134.50000000     128.00000000
       138.00000000     140.00000000     136.50000000     135.00000000     131.00000000     125.00000000     115.00000000     109.00000000     102.00000000      95.00000000      85.50000000      85.00000000      77.50000000      75.00000000      70.00000000      66.00000000      62.00000000      56.00000000      51.00000000      62.50000000
        75.00000000      46.50000000      36.50000000      32.00000000      23.00000000      19.50000000      12.00000000      11.50000000       2.00000000       2.00000000       1.00000000      14.00000000      11.00000000       1.00000000       1.00000000       1.00000000       1.00000000       1.00000000       1.00000000       2.00000000
         1.50000000       2.00000000       1.00000000       1.00000000       2.00000000       1.00000000       2.00000000       1.00000000       1.50000000       1.50000000       1.00000000       1.00000000       1.00000000       1.00000000       1.00000000       1.00000000       1.00000000       1.00000000       1.00000000       1.00000000
         2.00000000      -0.34999999       2.00000000       1.50000000       1.00000000       1.00000000       1.00000000       1.50000000       1.55128205     190.50000000      50.00000000      50.00000000     203.50000000      50.00000000     206.50000000     186.00000000     165.50000000     159.50000000     159.00000000     169.50000000