BEGIN options
  SAVE_FLOWS
END options

BEGIN dimensions
  MAXBOUND  201
END dimensions

BEGIN period  1
  1 8       0.00000000
  1 12       0.00000000
  1 11       0.00000000
  1 13       0.00000000
  1 14       0.00000000
  1 22       0.00000000
  1 21       0.00000000
  1 24       0.00000000
  1 25       0.00000000
  1 27       0.00000000
  1 28       0.00000000
  1 30       0.00000000
  1 36       0.00000000
  1 38       0.00000000
  1 41       0.00000000
  1 42       0.00000000
  1 43       0.00000000
  1 47       0.00000000
  1 50       0.00000000
  1 48       0.00000000
  1 51       0.00000000
  1 63       0.00000000
  1 60       0.00000000
  1 62       0.00000000
  1 65       0.00000000
  1 76       0.00000000
  1 67       0.00000000
  1 78       0.00000000
  1 80       0.00000000
  1 82       0.00000000
  1 91       0.00000000
  1 92       0.00000000
  1 93       0.00000000
  1 94       0.00000000
  1 95       0.00000000
  1 111       0.00000000
  1 112       0.00000000
  1 108       0.00000000
  1 105       0.00000000
  1 110       0.00000000
  1 123       0.00000000
  1 125       0.00000000
  1 128       0.00000000
  1 130       0.00000000
  1 143       0.00000000
  1 145       0.00000000
  1 144       0.00000000
  1 147       0.00000000
  1 148       0.00000000
  1 160       0.00000000
  1 161       0.00000000
  1 164       0.00000000
  1 163       0.00000000
  1 184       0.00000000
  1 185       0.00000000
  1 187       0.00000000
  1 183       0.00000000
  1 189       0.00000000
  1 206       0.00000000
  1 208       0.00000000
  1 210       0.00000000
  1 212       0.00000000
  1 234       0.00000000
  1 236       0.00000000
  1 238       0.00000000
  1 240       0.00000000
  1 262       0.00000000
  1 266       0.00000000
  1 264       0.00000000
  1 290       0.00000000
  1 268       0.00000000
  1 292       0.00000000
  1 294       0.00000000
  1 296       0.00000000
  1 324       0.00000000
  1 414       0.00000000
  1 323       0.00000000
  1 327       0.00000000
  1 325       0.00000000
  1 326       0.00000000
  1 415       0.00000000
  1 417       0.00000000
  1 416       0.00000000
  1 539       0.00000000
  1 538       0.00000000
  1 541       0.00000000
  1 540       0.00000000
  1 629       0.00000000
  1 628       0.00000000
  1 690       0.00000000
  1 630       0.00000000
  1 631       0.00000000
  1 691       0.00000000
  1 692       0.00000000
  1 693       0.00000000
  1 718       0.00000000
  1 719       0.00000000
  1 720       0.00000000
  1 721       0.00000000
  1 750       0.00000000
  1 749       0.00000000
  1 752       0.00000000
  1 751       0.00000000
  1 794       0.00000000
  1 795       0.00000000
  1 797       0.00000000
  1 799       0.00000000
  1 801       0.00000000
  1 938       0.00000000
  1 940       0.00000000
  1 942       0.00000000
  1 1078       0.00000000
  1 944       0.00000000
  1 943       0.00000000
  1 1079       0.00000000
  1 1080       0.00000000
  1 1081       0.00000000
  1 1246       0.00000000
  1 1247       0.00000000
  1 1249       0.00000000
  1 1248       0.00000000
  1 1435       0.00000000
  1 1438       0.00000000
  1 1440       0.00000000
  1 1439       0.00000000
  1 1592       0.00000000
  1 1437       0.00000000
  1 1590       0.00000000
  1 1595       0.00000000
  1 1597       0.00000000
  1 1702       0.00000000
  1 1704       0.00000000
  1 1707       0.00000000
  1 1852       0.00000000
  1 1709       0.00000000
  1 1862       0.00000000
  1 1854       0.00000000
  1 1860       0.00000000
  1 2010       0.00000000
  1 2012       0.00000000
  1 2017       0.00000000
  1 2015       0.00000000
  1 2167       0.00000000
  1 2095       0.00000000
  1 2104       0.00000000
  1 2097       0.00000000
  1 2103       0.00000000
  1 2100       0.00000000
  1 2247       0.00000000
  1 2168       0.00000000
  1 2170       0.00000000
  1 2169       0.00000000
  1 2249       0.00000000
  1 2248       0.00000000
  1 2250       0.00000000
  1 2337       0.00000000
  1 2336       0.00000000
  1 2339       0.00000000
  1 2341       0.00000000
  1 2470       0.00000000
  1 2343       0.00000000
  1 2467       0.00000000
  1 2463       0.00000000
  1 2465       0.00000000
  1 2564       0.00000000
  1 2471       0.00000000
  1 2562       0.00000000
  1 2561       0.00000000
  1 2565       0.00000000
  1 2705       0.00000000
  1 2704       0.00000000
  1 2707       0.00000000
  1 2715       0.00000000
  1 2713       0.00000000
  1 2846       0.00000000
  1 2839       0.00000000
  1 2844       0.00000000
  1 2841       0.00000000
  1 2965       0.00000000
  1 2904       0.00000000
  1 2911       0.00000000
  1 2906       0.00000000
  1 2909       0.00000000
  1 2970       0.00000000
  1 2967       0.00000000
  1 2972       0.00000000
  1 3025       0.00000000
  1 3030       0.00000000
  1 3027       0.00000000
  1 3031       0.00000000
  1 3032       0.00000000
  1 3081       0.00000000
  1 3082       0.00000000
  1 3085       0.00000000
  1 3083       0.00000000
  1 3087       0.00000000
  1 3088       0.00000000
  1 3139       0.00000000
  1 3140       0.00000000
  1 3141       0.00000000
  1 3144       0.00000000
END period  1

