BEGIN options
  SAVE_FLOWS
END options

BEGIN dimensions
  MAXBOUND  132
END dimensions

BEGIN period  1
  1 3260     130.17127681
  1 3261     128.16181185
  1 3264     125.74155036
  1 3265     123.33053063
  1 3270     120.98281373
  1 3271     118.60374708
  1 3274     115.97553236
  1 3282     113.54204812
  1 3280     111.46869072
  1 3278     109.23180314
  1 3281     107.94567243
  1 3276     106.64168302
  1 3217     104.21424568
  1 3215     102.22211244
  1 3218     100.26506314
  1 3219      97.89738642
  1 3224      95.58430097
  1 3225      93.28441084
  1 3228      90.97886688
  1 3238      88.68134342
  1 3229      86.38816659
  1 3237      84.08904432
  1 3241      82.81176230
  1 3235      81.63209462
  1 3236      79.24173401
  1 3245      76.94108242
  1 3247      75.55627700
  1 3194      74.37001531
  1 3246      72.81346359
  1 3196      71.02350176
  1 3195      69.51676183
  1 3160      68.99816465
  1 3168      68.65647568
  1 3167      67.64803183
  1 3163      66.71053414
  1 3164      65.96116620
  1 3104      64.80298085
  1 3102      63.95495504
  1 3105      63.14515220
  1 3106      61.90369091
  1 3117      60.87512227
  1 3111      60.20786720
  1 3112      59.33842946
  1 3113      58.34771862
  1 3110      57.66932486
  1 3046      56.78033656
  1 3045      55.71628894
  1 3047      54.95238639
  1 3051      53.94700320
  1 3056      52.70520266
  1 3050      51.98850965
  1 2988      51.02663307
  1 3049      50.23553206
  1 2987      50.18949731
  1 3052      49.37086302
  1 2994      48.04569450
  1 2996      47.34885813
  1 2995      46.50421812
  1 2998      45.20564958
  1 2999      44.11705898
  1 2993      43.15582021
  1 3004      42.46364216
  1 3002      41.65657155
  1 3003      40.68345740
  1 2932      39.96176492
  1 2935      38.92383299
  1 2934      37.76700810
  1 2936      37.03293370
  1 2945      36.13993593
  1 2946      35.06452266
  1 2940      34.43309877
  1 2943      33.63407064
  1 2941      32.39708970
  1 2869      31.19573252
  1 2868      30.00927841
  1 2870      29.33438204
  1 2865      28.66240743
  1 2871      26.27727983
  1 2863      25.72008964
  1 2872      25.17526651
  1 2875      24.61218698
  1 2878      24.04042584
  1 2877      23.30776804
  1 2883      22.61732148
  1 2884      21.75505826
  1 2885      20.79157790
  1 2887      20.27327446
  1 2764      20.08258389
  1 2765      19.68950771
  1 2763      18.99374481
  1 2768      18.06391169
  1 2760      17.51222929
  1 2769      17.38984048
  1 2767      16.97941798
  1 2770      16.23579028
  1 2771      15.48042379
  1 2776      14.70973061
  1 2777      13.94039369
  1 2780      13.19361579
  1 2781      12.44466879
  1 2786      11.68028345
  1 2787      10.91664397
  1 2790      10.16815550
  1 2791       9.41832418
  1 2796       8.65450158
  1 2673       7.88677995
  1 2797       7.43852146
  1 2670       7.06016575
  1 2674       5.85805735
  1 2680       5.57431686
  1 2679       5.29158841
  1 2683       5.00309597
  1 2684       4.82252552
  1 2810       4.63558814
  1 2805       4.34906568
  1 2811       4.07499364
  1 2814       3.79062429
  1 2815       3.50498426
  1 2820       3.22047235
  1 2821       2.93065513
  1 2830       2.73408949
  1 2824       2.53523212
  1 2825       2.23454001
  1 2697       1.97849755
  1 2698       1.72380522
  1 2708       1.42797867
  1 2701       1.13632367
  1 2700       0.91485105
  1 2702       0.77002669
  1 2709       0.54979488
  1 2712       0.31742258
  1 2706       0.17095845
END period  1

