BEGIN options
  SAVE_FLOWS
END options

BEGIN griddata
  icelltype
    CONSTANT  0
  k  LAYERED
    OPEN/CLOSE  'kqm.txt'  FACTOR  1.0
    OPEN/CLOSE  'kq.txt'  FACTOR  1.0
    OPEN/CLOSE  'kep.txt'  FACTOR  1.0
    OPEN/CLOSE  'kpc.txt'  FACTOR  1.0
    OPEN/CLOSE  'kpms.txt'  FACTOR  1.0
END griddata

