BEGIN MODFLOW_GRID basegrid
  ROTATION_ANGLE = 0.0
  X_OFFSET = 660000.0
  Y_OFFSET = 6150000.0
  NLAY = 1
  NROW = 22
  NCOL = 22
  DELR = CONSTANT 2272.7272727272725
  DELC = CONSTANT 2272.7272727272725
  TOP = CONSTANT 1.0
  BOTTOM LAYER 1 = CONSTANT 0.0
END MODFLOW_GRID


BEGIN QUADTREE_BUILDER quadtreebuilder
  MODFLOW_GRID = basegrid
  SMOOTHING = full
  TOP LAYER 1 = REPLICATE basename
  BOTTOM LAYER 1 = REPLICATE basename
  GRID_DEFINITION_FILE = quadtreegrid.dfn
END QUADTREE_BUILDER






