BEGIN options
  SAVE_FLOWS
END options

BEGIN dimensions
  MAXBOUND  362
END dimensions

BEGIN period  1
  1 10 98       0.00000000
  1 10 99       0.00000000
  1 11 98       0.00000000
  1 11 99       0.00000000
  1 12 90       0.00000000
  1 12 91       0.00000000
  1 12 92       0.00000000
  1 12 93       0.00000000
  1 12 94       0.00000000
  1 12 95       0.00000000
  1 12 96       0.00000000
  1 12 97       0.00000000
  1 12 98       0.00000000
  1 12 99       0.00000000
  1 13 90       0.00000000
  1 13 91       0.00000000
  1 13 92       0.00000000
  1 13 93       0.00000000
  1 13 94       0.00000000
  1 13 95       0.00000000
  1 13 96       0.00000000
  1 13 97       0.00000000
  1 13 98       0.00000000
  1 13 99       0.00000000
  1 14 89       0.00000000
  1 14 90       0.00000000
  1 14 91       0.00000000
  1 14 92       0.00000000
  1 14 93       0.00000000
  1 14 94       0.00000000
  1 14 95       0.00000000
  1 14 96       0.00000000
  1 14 97       0.00000000
  1 14 98       0.00000000
  1 14 99       0.00000000
  1 15 89       0.00000000
  1 15 90       0.00000000
  1 15 91       0.00000000
  1 15 92       0.00000000
  1 15 93       0.00000000
  1 15 94       0.00000000
  1 15 95       0.00000000
  1 15 96       0.00000000
  1 15 97       0.00000000
  1 15 98       0.00000000
  1 15 99       0.00000000
  1 16 89       0.00000000
  1 16 90       0.00000000
  1 16 91       0.00000000
  1 16 92       0.00000000
  1 16 93       0.00000000
  1 16 94       0.00000000
  1 16 95       0.00000000
  1 16 96       0.00000000
  1 16 97       0.00000000
  1 16 98       0.00000000
  1 17 90       0.00000000
  1 17 91       0.00000000
  1 17 92       0.00000000
  1 17 93       0.00000000
  1 17 94       0.00000000
  1 17 95       0.00000000
  1 17 96       0.00000000
  1 17 97       0.00000000
  1 17 98       0.00000000
  1 18 90       0.00000000
  1 18 91       0.00000000
  1 18 92       0.00000000
  1 18 93       0.00000000
  1 18 94       0.00000000
  1 18 95       0.00000000
  1 18 96       0.00000000
  1 18 97       0.00000000
  1 19 89       0.00000000
  1 19 90       0.00000000
  1 19 91       0.00000000
  1 19 92       0.00000000
  1 19 93       0.00000000
  1 19 94       0.00000000
  1 19 95       0.00000000
  1 19 96       0.00000000
  1 20 88       0.00000000
  1 20 89       0.00000000
  1 20 90       0.00000000
  1 20 91       0.00000000
  1 20 92       0.00000000
  1 20 93       0.00000000
  1 20 94       0.00000000
  1 20 95       0.00000000
  1 20 96       0.00000000
  1 21 87       0.00000000
  1 21 88       0.00000000
  1 21 89       0.00000000
  1 21 90       0.00000000
  1 21 91       0.00000000
  1 21 92       0.00000000
  1 21 93       0.00000000
  1 21 94       0.00000000
  1 21 95       0.00000000
  1 22 85       0.00000000
  1 22 86       0.00000000
  1 22 87       0.00000000
  1 22 88       0.00000000
  1 22 89       0.00000000
  1 22 90       0.00000000
  1 22 91       0.00000000
  1 22 92       0.00000000
  1 22 93       0.00000000
  1 22 94       0.00000000
  1 22 95       0.00000000
  1 23 84       0.00000000
  1 23 85       0.00000000
  1 23 86       0.00000000
  1 23 87       0.00000000
  1 23 88       0.00000000
  1 23 89       0.00000000
  1 23 90       0.00000000
  1 23 91       0.00000000
  1 23 92       0.00000000
  1 23 93       0.00000000
  1 23 94       0.00000000
  1 23 95       0.00000000
  1 24 82       0.00000000
  1 24 83       0.00000000
  1 24 84       0.00000000
  1 24 85       0.00000000
  1 24 86       0.00000000
  1 24 87       0.00000000
  1 24 88       0.00000000
  1 24 89       0.00000000
  1 24 90       0.00000000
  1 24 91       0.00000000
  1 24 92       0.00000000
  1 24 93       0.00000000
  1 24 94       0.00000000
  1 24 95       0.00000000
  1 24 96       0.00000000
  1 25 82       0.00000000
  1 25 83       0.00000000
  1 25 84       0.00000000
  1 25 85       0.00000000
  1 25 86       0.00000000
  1 25 87       0.00000000
  1 25 88       0.00000000
  1 25 89       0.00000000
  1 25 90       0.00000000
  1 25 91       0.00000000
  1 25 92       0.00000000
  1 25 93       0.00000000
  1 25 94       0.00000000
  1 25 95       0.00000000
  1 25 96       0.00000000
  1 26 81       0.00000000
  1 26 82       0.00000000
  1 26 83       0.00000000
  1 26 84       0.00000000
  1 26 85       0.00000000
  1 26 86       0.00000000
  1 26 87       0.00000000
  1 26 88       0.00000000
  1 26 89       0.00000000
  1 26 90       0.00000000
  1 26 91       0.00000000
  1 26 92       0.00000000
  1 26 93       0.00000000
  1 26 94       0.00000000
  1 26 95       0.00000000
  1 26 97       0.00000000
  1 27 81       0.00000000
  1 27 82       0.00000000
  1 27 83       0.00000000
  1 27 84       0.00000000
  1 27 85       0.00000000
  1 27 86       0.00000000
  1 27 87       0.00000000
  1 27 88       0.00000000
  1 27 89       0.00000000
  1 27 90       0.00000000
  1 27 91       0.00000000
  1 27 92       0.00000000
  1 27 93       0.00000000
  1 27 94       0.00000000
  1 27 95       0.00000000
  1 27 97       0.00000000
  1 28 80       0.00000000
  1 28 81       0.00000000
  1 28 82       0.00000000
  1 28 83       0.00000000
  1 28 84       0.00000000
  1 28 85       0.00000000
  1 28 86       0.00000000
  1 28 87       0.00000000
  1 28 88       0.00000000
  1 28 89       0.00000000
  1 28 90       0.00000000
  1 28 91       0.00000000
  1 28 92       0.00000000
  1 28 93       0.00000000
  1 29 80       0.00000000
  1 29 81       0.00000000
  1 29 82       0.00000000
  1 29 83       0.00000000
  1 29 84       0.00000000
  1 29 85       0.00000000
  1 29 86       0.00000000
  1 29 87       0.00000000
  1 29 88       0.00000000
  1 29 89       0.00000000
  1 29 90       0.00000000
  1 29 91       0.00000000
  1 29 92       0.00000000
  1 29 93       0.00000000
  1 29 94       0.00000000
  1 29 95       0.00000000
  1 29 96       0.00000000
  1 30 82       0.00000000
  1 30 83       0.00000000
  1 30 84       0.00000000
  1 30 85       0.00000000
  1 30 86       0.00000000
  1 30 87       0.00000000
  1 30 88       0.00000000
  1 30 89       0.00000000
  1 30 90       0.00000000
  1 30 91       0.00000000
  1 30 92       0.00000000
  1 30 94       0.00000000
  1 30 95       0.00000000
  1 30 96       0.00000000
  1 31 83       0.00000000
  1 31 84       0.00000000
  1 31 85       0.00000000
  1 31 86       0.00000000
  1 31 87       0.00000000
  1 31 88       0.00000000
  1 31 89       0.00000000
  1 31 90       0.00000000
  1 31 91       0.00000000
  1 31 92       0.00000000
  1 31 94       0.00000000
  1 31 95       0.00000000
  1 32 83       0.00000000
  1 32 84       0.00000000
  1 32 85       0.00000000
  1 32 86       0.00000000
  1 32 87       0.00000000
  1 32 88       0.00000000
  1 32 89       0.00000000
  1 32 90       0.00000000
  1 32 91       0.00000000
  1 32 92       0.00000000
  1 32 93       0.00000000
  1 32 94       0.00000000
  1 32 95       0.00000000
  1 33 83       0.00000000
  1 33 84       0.00000000
  1 33 85       0.00000000
  1 33 86       0.00000000
  1 33 87       0.00000000
  1 33 88       0.00000000
  1 33 89       0.00000000
  1 33 90       0.00000000
  1 33 91       0.00000000
  1 33 92       0.00000000
  1 33 93       0.00000000
  1 33 94       0.00000000
  1 34 83       0.00000000
  1 34 84       0.00000000
  1 34 85       0.00000000
  1 34 86       0.00000000
  1 34 87       0.00000000
  1 34 88       0.00000000
  1 34 89       0.00000000
  1 34 90       0.00000000
  1 34 91       0.00000000
  1 34 92       0.00000000
  1 34 93       0.00000000
  1 34 95       0.00000000
  1 35 84       0.00000000
  1 35 85       0.00000000
  1 35 86       0.00000000
  1 35 87       0.00000000
  1 35 88       0.00000000
  1 35 89       0.00000000
  1 35 90       0.00000000
  1 35 91       0.00000000
  1 35 92       0.00000000
  1 35 93       0.00000000
  1 36 84       0.00000000
  1 36 85       0.00000000
  1 36 86       0.00000000
  1 36 87       0.00000000
  1 36 88       0.00000000
  1 36 89       0.00000000
  1 36 90       0.00000000
  1 36 91       0.00000000
  1 36 92       0.00000000
  1 36 93       0.00000000
  1 36 94       0.00000000
  1 36 95       0.00000000
  1 37 85       0.00000000
  1 37 86       0.00000000
  1 37 87       0.00000000
  1 37 88       0.00000000
  1 37 89       0.00000000
  1 37 90       0.00000000
  1 37 91       0.00000000
  1 37 92       0.00000000
  1 37 93       0.00000000
  1 37 94       0.00000000
  1 37 95       0.00000000
  1 38 86       0.00000000
  1 38 87       0.00000000
  1 38 88       0.00000000
  1 38 89       0.00000000
  1 38 90       0.00000000
  1 38 94       0.00000000
  1 38 95       0.00000000
  1 71 91       0.00000000
  1 71 92       0.00000000
  1 71 93       0.00000000
  1 71 94       0.00000000
  1 71 95       0.00000000
  1 72 90       0.00000000
  1 72 91       0.00000000
  1 72 92       0.00000000
  1 72 93       0.00000000
  1 72 94       0.00000000
  1 72 95       0.00000000
  1 73 90       0.00000000
  1 73 91       0.00000000
  1 73 92       0.00000000
  1 73 93       0.00000000
  1 73 94       0.00000000
  1 73 95       0.00000000
  1 74 90       0.00000000
  1 74 91       0.00000000
  1 74 93       0.00000000
  1 74 94       0.00000000
  1 74 95       0.00000000
  1 75 93       0.00000000
  1 75 94       0.00000000
  1 75 95       0.00000000
  1 75 96       0.00000000
  1 76 93       0.00000000
  1 76 94       0.00000000
  1 76 95       0.00000000
  1 77 93       0.00000000
  1 77 94       0.00000000
  1 77 95       0.00000000
  1 77 96       0.00000000
  1 78 93       0.00000000
  1 78 94       0.00000000
  1 78 95       0.00000000
  1 79 93       0.00000000
  1 79 94       0.00000000
  1 79 95       0.00000000
  1 80 94       0.00000000
  1 80 95       0.00000000
  1 80 96       0.00000000
  1 81 94       0.00000000
  1 81 95       0.00000000
END period  1

