BEGIN options
  READASARRAYS
END options

BEGIN period  1
  recharge
    INTERNAL  FACTOR  1.0
    5.15355783E-09  5.15355783E-09  5.15355783E-09  5.15355783E-09  5.15355783E-09  5.15355783E-09  5.15355783E-09  5.15355783E-09  5.15355783E-09  5.15355783E-09  5.15355783E-09  5.15355783E-09  5.15355783E-09  5.15355783E-09  5.15355783E-09  5.15355783E-09  5.15355783E-09  5.15355783E-09  5.15355783E-09  5.15355783E-09
    5.15355783E-09  5.15355783E-09  5.15355783E-09  5.15355783E-09  5.15355783E-09  5.15355783E-09  5.15355783E-09  5.15355783E-09  5.15355783E-09  5.15355783E-09  5.15355783E-09  5.15355783E-09  5.15355783E-09  5.15355783E-09  5.15355783E-09  5.15355783E-09  5.15355783E-09  5.15355783E-09  5.15355783E-09  5.15355783E-09
    5.15355783E-09  5.15355783E-09  5.15355783E-09  5.15355783E-09  5.15355783E-09  5.15355783E-09  5.15355783E-09  5.15355783E-09  5.15355783E-09  5.15355783E-09  5.15355783E-09  5.15355783E-09  5.15355783E-09  5.15355783E-09  5.15355783E-09  5.15355783E-09  5.15355783E-09  5.15355783E-09  5.15355783E-09  5.15355783E-09
    5.15355783E-09  5.15355783E-09  5.15355783E-09  5.15355783E-09  5.15355783E-09  5.15355783E-09  5.15355783E-09  5.15355783E-09  5.15355783E-09  5.15355783E-09  5.15355783E-09  5.15355783E-09  5.15355783E-09  5.15355783E-09  5.15355783E-09  5.15355783E-09  5.15355783E-09  5.15355783E-09  5.15355783E-09  5.15355783E-09
    5.15355783E-09  5.15355783E-09  5.15355783E-09  5.15355783E-09  5.15355783E-09  5.15355783E-09  5.15355783E-09  5.15355783E-09  5.15355783E-09  5.15355783E-09  5.15355783E-09  5.15355783E-09  5.15355783E-09       0.00000000       0.00000000       0.00000000  5.15355783E-09  5.15355783E-09  5.15355783E-09  5.15355783E-09
    5.15355783E-09  5.15355783E-09  5.15355783E-09
    5.15355783E-09  5.15355783E-09  5.15355783E-09  5.15355783E-09  5.15355783E-09  5.15355783E-09  5.15355783E-09  5.15355783E-09  5.15355783E-09  5.15355783E-09  5.15355783E-09  5.15355783E-09  5.15355783E-09  5.15355783E-09  5.15355783E-09  5.15355783E-09  5.15355783E-09  5.15355783E-09  5.15355783E-09  5.15355783E-09
    5.15355783E-09  5.15355783E-09  5.15355783E-09  5.15355783E-09  5.15355783E-09  5.15355783E-09  5.15355783E-09  5.15355783E-09  5.15355783E-09  5.15355783E-09  5.15355783E-09  5.15355783E-09  5.15355783E-09  5.15355783E-09  5.15355783E-09  5.15355783E-09  5.15355783E-09  5.15355783E-09  5.15355783E-09  5.15355783E-09
    5.15355783E-09  5.15355783E-09  5.15355783E-09  5.15355783E-09  5.15355783E-09  5.15355783E-09  5.15355783E-09  5.15355783E-09  5.15355783E-09  5.15355783E-09  5.15355783E-09  5.15355783E-09  5.15355783E-09  5.15355783E-09  5.15355783E-09  5.15355783E-09  5.15355783E-09  5.15355783E-09  5.15355783E-09  5.15355783E-09
    5.15355783E-09  5.15355783E-09  5.15355783E-09  5.15355783E-09  5.15355783E-09  5.15355783E-09  5.15355783E-09  5.15355783E-09  5.15355783E-09  5.15355783E-09  5.15355783E-09  5.15355783E-09  5.15355783E-09  5.15355783E-09  5.15355783E-09  5.15355783E-09  5.15355783E-09  5.15355783E-09  5.15355783E-09  5.15355783E-09
    5.15355783E-09  5.15355783E-09  5.15355783E-09  5.15355783E-09  5.15355783E-09  5.15355783E-09  5.15355783E-09  5.15355783E-09  5.15355783E-09  5.15355783E-09  5.15355783E-09  5.15355783E-09  5.15355783E-09       0.00000000  5.15355783E-09       0.00000000  5.15355783E-09  5.15355783E-09  5.15355783E-09  5.15355783E-09
    5.15355783E-09  5.15355783E-09  5.15355783E-09
    5.15355783E-09  5.15355783E-09  5.15355783E-09  5.15355783E-09  5.15355783E-09  5.15355783E-09  5.15355783E-09  5.15355783E-09  5.15355783E-09  5.15355783E-09  5.15355783E-09  5.15355783E-09  5.15355783E-09  5.15355783E-09  5.15355783E-09  5.15355783E-09  5.15355783E-09  5.15355783E-09  5.15355783E-09  5.15355783E-09
    5.15355783E-09  5.15355783E-09  5.15355783E-09  5.15355783E-09  5.15355783E-09  5.15355783E-09  5.15355783E-09  5.15355783E-09  5.15355783E-09  5.15355783E-09  5.15355783E-09  5.15355783E-09  5.15355783E-09  5.15355783E-09  5.15355783E-09  5.15355783E-09  5.15355783E-09  5.15355783E-09  5.15355783E-09  5.15355783E-09
    5.15355783E-09  5.15355783E-09  5.15355783E-09  5.15355783E-09  5.15355783E-09  5.15355783E-09  5.15355783E-09  5.15355783E-09  5.15355783E-09  5.15355783E-09  5.15355783E-09  5.15355783E-09  5.15355783E-09  5.15355783E-09  5.15355783E-09  5.15355783E-09  5.15355783E-09  5.15355783E-09  5.15355783E-09  5.15355783E-09
    5.15355783E-09  5.15355783E-09  5.15355783E-09  5.15355783E-09  5.15355783E-09  5.15355783E-09  5.15355783E-09  5.15355783E-09  5.15355783E-09  5.15355783E-09  5.15355783E-09  5.15355783E-09  5.15355783E-09  5.15355783E-09  5.15355783E-09  5.15355783E-09  5.15355783E-09  5.15355783E-09  5.15355783E-09  5.15355783E-09
    5.15355783E-09  5.15355783E-09  5.15355783E-09  5.15355783E-09  5.15355783E-09  5.15355783E-09  5.15355783E-09  5.15355783E-09  5.15355783E-09  5.15355783E-09  5.15355783E-09  5.15355783E-09  5.15355783E-09  5.15355783E-09  5.15355783E-09  5.15355783E-09  5.15355783E-09  5.15355783E-09  5.15355783E-09       0.00000000
    5.15355783E-09  5.15355783E-09  5.15355783E-09
    5.15355783E-09  5.15355783E-09  5.15355783E-09  5.15355783E-09  5.15355783E-09  5.15355783E-09  5.15355783E-09  5.15355783E-09  5.15355783E-09  5.15355783E-09  5.15355783E-09  5.15355783E-09  5.15355783E-09  5.15355783E-09  5.15355783E-09  5.15355783E-09  5.15355783E-09  5.15355783E-09  5.15355783E-09  5.15355783E-09
    5.15355783E-09  5.15355783E-09  5.15355783E-09  5.15355783E-09  5.15355783E-09  5.15355783E-09  5.15355783E-09  5.15355783E-09  5.15355783E-09  5.15355783E-09  5.15355783E-09  5.15355783E-09  5.15355783E-09  5.15355783E-09  5.15355783E-09  5.15355783E-09  5.15355783E-09  5.15355783E-09  5.15355783E-09  5.15355783E-09
    5.15355783E-09  5.15355783E-09  5.15355783E-09  5.15355783E-09  5.15355783E-09  5.15355783E-09  5.15355783E-09  5.15355783E-09  5.15355783E-09  5.15355783E-09  5.15355783E-09  5.15355783E-09  5.15355783E-09  5.15355783E-09  5.15355783E-09  5.15355783E-09  5.15355783E-09  5.15355783E-09  5.15355783E-09  5.15355783E-09
    5.15355783E-09  5.15355783E-09  5.15355783E-09  5.15355783E-09  5.15355783E-09  5.15355783E-09  5.15355783E-09  5.15355783E-09  5.15355783E-09  5.15355783E-09  5.15355783E-09  5.15355783E-09  5.15355783E-09  5.15355783E-09  5.15355783E-09  5.15355783E-09  5.15355783E-09  5.15355783E-09  5.15355783E-09  5.15355783E-09
    5.15355783E-09  5.15355783E-09  5.15355783E-09  5.15355783E-09  5.15355783E-09  5.15355783E-09  5.15355783E-09  5.15355783E-09  5.15355783E-09  5.15355783E-09  5.15355783E-09  5.15355783E-09  5.15355783E-09  5.15355783E-09  5.15355783E-09  5.15355783E-09  5.15355783E-09  5.15355783E-09  5.15355783E-09  5.15355783E-09
    5.15355783E-09  5.15355783E-09  5.15355783E-09
    5.15355783E-09  5.15355783E-09  5.15355783E-09  5.15355783E-09  5.15355783E-09  5.15355783E-09  5.15355783E-09  5.15355783E-09  5.15355783E-09  5.15355783E-09  5.15355783E-09  5.15355783E-09  5.15355783E-09  5.15355783E-09  5.15355783E-09  5.15355783E-09  5.15355783E-09  5.15355783E-09  5.15355783E-09  5.15355783E-09
    5.15355783E-09  5.15355783E-09  5.15355783E-09  5.15355783E-09  5.15355783E-09  5.15355783E-09  5.15355783E-09  5.15355783E-09  5.15355783E-09  5.15355783E-09  5.15355783E-09  5.15355783E-09  5.15355783E-09  5.15355783E-09  5.15355783E-09  5.15355783E-09  5.15355783E-09  5.15355783E-09  5.15355783E-09  5.15355783E-09
    5.15355783E-09  5.15355783E-09  5.15355783E-09  5.15355783E-09  5.15355783E-09  5.15355783E-09  5.15355783E-09  5.15355783E-09  5.15355783E-09  5.15355783E-09  5.15355783E-09  5.15355783E-09  5.15355783E-09  5.15355783E-09  5.15355783E-09  5.15355783E-09  5.15355783E-09  5.15355783E-09  5.15355783E-09  5.15355783E-09
    5.15355783E-09  5.15355783E-09  5.15355783E-09  5.15355783E-09  5.15355783E-09  5.15355783E-09  5.15355783E-09  5.15355783E-09  5.15355783E-09  5.15355783E-09  5.15355783E-09  5.15355783E-09  5.15355783E-09  5.15355783E-09  5.15355783E-09  5.15355783E-09  5.15355783E-09  5.15355783E-09  5.15355783E-09  5.15355783E-09
    5.15355783E-09  5.15355783E-09  5.15355783E-09  5.15355783E-09  5.15355783E-09  5.15355783E-09  5.15355783E-09  5.15355783E-09  5.15355783E-09  5.15355783E-09  5.15355783E-09  5.15355783E-09  5.15355783E-09  5.15355783E-09  5.15355783E-09  5.15355783E-09  5.15355783E-09  5.15355783E-09  5.15355783E-09  5.15355783E-09
    5.15355783E-09  5.15355783E-09  5.15355783E-09
    5.15355783E-09  5.15355783E-09  5.15355783E-09  5.15355783E-09  5.15355783E-09  5.15355783E-09  5.15355783E-09  5.15355783E-09  5.15355783E-09  5.15355783E-09  5.15355783E-09  5.15355783E-09  5.15355783E-09  5.15355783E-09  5.15355783E-09  5.15355783E-09  5.15355783E-09  5.15355783E-09  5.15355783E-09  5.15355783E-09
    5.15355783E-09  5.15355783E-09  5.15355783E-09  5.15355783E-09  5.15355783E-09  5.15355783E-09  5.15355783E-09  5.15355783E-09  5.15355783E-09  5.15355783E-09  5.15355783E-09  5.15355783E-09  5.15355783E-09  5.15355783E-09  5.15355783E-09  5.15355783E-09  5.15355783E-09  5.15355783E-09  5.15355783E-09  5.15355783E-09
    5.15355783E-09  5.15355783E-09  5.15355783E-09  5.15355783E-09  5.15355783E-09  5.15355783E-09  5.15355783E-09  5.15355783E-09  5.15355783E-09  5.15355783E-09  5.15355783E-09  5.15355783E-09  5.15355783E-09  5.15355783E-09  5.15355783E-09  5.15355783E-09  5.15355783E-09  5.15355783E-09  5.15355783E-09  5.15355783E-09
    5.15355783E-09  5.15355783E-09  5.15355783E-09  5.15355783E-09  5.15355783E-09  5.15355783E-09  5.15355783E-09  5.15355783E-09  5.15355783E-09  5.15355783E-09  5.15355783E-09  5.15355783E-09  5.15355783E-09  5.15355783E-09  5.15355783E-09  5.15355783E-09  5.15355783E-09  5.15355783E-09  5.15355783E-09  5.15355783E-09
    5.15355783E-09  5.15355783E-09  5.15355783E-09  5.15355783E-09  5.15355783E-09  5.15355783E-09  5.15355783E-09  5.15355783E-09  5.15355783E-09  5.15355783E-09  5.15355783E-09  5.15355783E-09  5.15355783E-09  5.15355783E-09  5.15355783E-09  5.15355783E-09  5.15355783E-09  5.15355783E-09  5.15355783E-09  5.15355783E-09
    5.15355783E-09  5.15355783E-09  5.15355783E-09
    5.15355783E-09  5.15355783E-09  5.15355783E-09  5.15355783E-09  5.15355783E-09  5.15355783E-09  5.15355783E-09  5.15355783E-09  5.15355783E-09  5.15355783E-09  5.15355783E-09  5.15355783E-09  5.15355783E-09  5.15355783E-09  5.15355783E-09  5.15355783E-09  5.15355783E-09  5.15355783E-09  5.15355783E-09  5.15355783E-09
    5.15355783E-09  5.15355783E-09  5.15355783E-09  5.15355783E-09  5.15355783E-09  5.15355783E-09  5.15355783E-09  5.15355783E-09  5.15355783E-09  5.15355783E-09  5.15355783E-09  5.15355783E-09  5.15355783E-09  5.15355783E-09  5.15355783E-09  5.15355783E-09  5.15355783E-09  5.15355783E-09  5.15355783E-09  5.15355783E-09
    5.15355783E-09  5.15355783E-09  5.15355783E-09  5.15355783E-09  5.15355783E-09  5.15355783E-09  5.15355783E-09  5.15355783E-09  5.15355783E-09  5.15355783E-09  5.15355783E-09  5.15355783E-09  5.15355783E-09  5.15355783E-09  5.15355783E-09  5.15355783E-09  5.15355783E-09  5.15355783E-09  5.15355783E-09  5.15355783E-09
    5.15355783E-09  5.15355783E-09  5.15355783E-09  5.15355783E-09  5.15355783E-09  5.15355783E-09  5.15355783E-09  5.15355783E-09  5.15355783E-09  5.15355783E-09  5.15355783E-09  5.15355783E-09  5.15355783E-09  5.15355783E-09  5.15355783E-09  5.15355783E-09  5.15355783E-09  5.15355783E-09  5.15355783E-09  5.15355783E-09
    5.15355783E-09  5.15355783E-09  5.15355783E-09  5.15355783E-09  5.15355783E-09  5.15355783E-09  5.15355783E-09  5.15355783E-09  5.15355783E-09  5.15355783E-09  5.15355783E-09  5.15355783E-09  5.15355783E-09  5.15355783E-09  5.15355783E-09  5.15355783E-09  5.15355783E-09  5.15355783E-09  5.15355783E-09       0.00000000
         0.00000000       0.00000000  5.15355783E-09
    5.15355783E-09  5.15355783E-09  5.15355783E-09  5.15355783E-09  5.15355783E-09  5.15355783E-09  5.15355783E-09  5.15355783E-09  5.15355783E-09  5.15355783E-09  5.15355783E-09  5.15355783E-09  5.15355783E-09  5.15355783E-09  5.15355783E-09  5.15355783E-09  5.15355783E-09  5.15355783E-09  5.15355783E-09  5.15355783E-09
    5.15355783E-09  5.15355783E-09  5.15355783E-09  5.15355783E-09  5.15355783E-09  5.15355783E-09  5.15355783E-09  5.15355783E-09  5.15355783E-09  5.15355783E-09  5.15355783E-09  5.15355783E-09  5.15355783E-09  5.15355783E-09  5.15355783E-09  5.15355783E-09  5.15355783E-09  5.15355783E-09  5.15355783E-09  5.15355783E-09
    5.15355783E-09  5.15355783E-09  5.15355783E-09  5.15355783E-09  5.15355783E-09  5.15355783E-09  5.15355783E-09  5.15355783E-09  5.15355783E-09  5.15355783E-09  5.15355783E-09  5.15355783E-09  5.15355783E-09  5.15355783E-09  5.15355783E-09  5.15355783E-09  5.15355783E-09  5.15355783E-09  5.15355783E-09  5.15355783E-09
    5.15355783E-09  5.15355783E-09  5.15355783E-09  5.15355783E-09  5.15355783E-09  5.15355783E-09  5.15355783E-09  5.15355783E-09  5.15355783E-09  5.15355783E-09  5.15355783E-09  5.15355783E-09  5.15355783E-09  5.15355783E-09  5.15355783E-09  5.15355783E-09  5.15355783E-09  5.15355783E-09  5.15355783E-09  5.15355783E-09
    5.15355783E-09  5.15355783E-09  5.15355783E-09  5.15355783E-09  5.15355783E-09  5.15355783E-09  5.15355783E-09  5.15355783E-09  5.15355783E-09  5.15355783E-09  5.15355783E-09  5.15355783E-09  5.15355783E-09  5.15355783E-09  5.15355783E-09  5.15355783E-09       0.00000000  5.15355783E-09  5.15355783E-09       0.00000000
         0.00000000       0.00000000  5.15355783E-09
    5.15355783E-09  5.15355783E-09  5.15355783E-09  5.15355783E-09  5.15355783E-09  5.15355783E-09  5.15355783E-09  5.15355783E-09  5.15355783E-09  5.15355783E-09  5.15355783E-09  5.15355783E-09  5.15355783E-09  5.15355783E-09  5.15355783E-09  5.15355783E-09  5.15355783E-09  5.15355783E-09  5.15355783E-09  5.15355783E-09
    5.15355783E-09  5.15355783E-09  5.15355783E-09  5.15355783E-09  5.15355783E-09  5.15355783E-09  5.15355783E-09  5.15355783E-09  5.15355783E-09  5.15355783E-09  5.15355783E-09  5.15355783E-09  5.15355783E-09  5.15355783E-09  5.15355783E-09  5.15355783E-09  5.15355783E-09  5.15355783E-09  5.15355783E-09  5.15355783E-09
    5.15355783E-09  5.15355783E-09  5.15355783E-09  5.15355783E-09  5.15355783E-09  5.15355783E-09  5.15355783E-09  5.15355783E-09  5.15355783E-09  5.15355783E-09  5.15355783E-09  5.15355783E-09  5.15355783E-09  5.15355783E-09  5.15355783E-09  5.15355783E-09  5.15355783E-09  5.15355783E-09  5.15355783E-09  5.15355783E-09
    5.15355783E-09  5.15355783E-09  5.15355783E-09  5.15355783E-09  5.15355783E-09  5.15355783E-09  5.15355783E-09  5.15355783E-09  5.15355783E-09  5.15355783E-09  5.15355783E-09  5.15355783E-09  5.15355783E-09  5.15355783E-09  5.15355783E-09  5.15355783E-09  5.15355783E-09  5.15355783E-09  5.15355783E-09  5.15355783E-09
    5.15355783E-09  5.15355783E-09  5.15355783E-09  5.15355783E-09  5.15355783E-09  5.15355783E-09  5.15355783E-09  5.15355783E-09  5.15355783E-09  5.15355783E-09  5.15355783E-09  5.15355783E-09  5.15355783E-09  5.15355783E-09  5.15355783E-09  5.15355783E-09       0.00000000       0.00000000       0.00000000       0.00000000
         0.00000000       0.00000000  5.15355783E-09
    5.15355783E-09  5.15355783E-09  5.15355783E-09  5.15355783E-09  5.15355783E-09  5.15355783E-09  5.15355783E-09  5.15355783E-09  5.15355783E-09  5.15355783E-09  5.15355783E-09  5.15355783E-09  5.15355783E-09  5.15355783E-09  5.15355783E-09  5.15355783E-09  5.15355783E-09  5.15355783E-09  5.15355783E-09  5.15355783E-09
    5.15355783E-09  5.15355783E-09  5.15355783E-09  5.15355783E-09  5.15355783E-09  5.15355783E-09  5.15355783E-09  5.15355783E-09  5.15355783E-09  5.15355783E-09  5.15355783E-09  5.15355783E-09  5.15355783E-09  5.15355783E-09  5.15355783E-09  5.15355783E-09  5.15355783E-09  5.15355783E-09  5.15355783E-09  5.15355783E-09
    5.15355783E-09  5.15355783E-09  5.15355783E-09  5.15355783E-09  5.15355783E-09  5.15355783E-09  5.15355783E-09  5.15355783E-09  5.15355783E-09  5.15355783E-09  5.15355783E-09  5.15355783E-09  5.15355783E-09  5.15355783E-09  5.15355783E-09  5.15355783E-09  5.15355783E-09  5.15355783E-09  5.15355783E-09  5.15355783E-09
    5.15355783E-09  5.15355783E-09  5.15355783E-09  5.15355783E-09  5.15355783E-09  5.15355783E-09  5.15355783E-09  5.15355783E-09  5.15355783E-09  5.15355783E-09  5.15355783E-09  5.15355783E-09  5.15355783E-09  5.15355783E-09  5.15355783E-09  5.15355783E-09  5.15355783E-09  5.15355783E-09  5.15355783E-09  5.15355783E-09
    5.15355783E-09  5.15355783E-09  5.15355783E-09  5.15355783E-09  5.15355783E-09  5.15355783E-09  5.15355783E-09  5.15355783E-09  5.15355783E-09  5.15355783E-09  5.15355783E-09  5.15355783E-09  5.15355783E-09  5.15355783E-09  5.15355783E-09  5.15355783E-09  5.15355783E-09       0.00000000       0.00000000       0.00000000
         0.00000000  5.15355783E-09  5.15355783E-09
    5.15355783E-09  5.15355783E-09  5.15355783E-09  5.15355783E-09  5.15355783E-09  5.15355783E-09  5.15355783E-09  5.15355783E-09  5.15355783E-09  5.15355783E-09  5.15355783E-09  5.15355783E-09  5.15355783E-09  5.15355783E-09  5.15355783E-09  5.15355783E-09  5.15355783E-09  5.15355783E-09  5.15355783E-09  5.15355783E-09
    5.15355783E-09  5.15355783E-09  5.15355783E-09  5.15355783E-09  5.15355783E-09  5.15355783E-09  5.15355783E-09  5.15355783E-09  5.15355783E-09  5.15355783E-09  5.15355783E-09  5.15355783E-09  5.15355783E-09  5.15355783E-09  5.15355783E-09  5.15355783E-09  5.15355783E-09  5.15355783E-09  5.15355783E-09  5.15355783E-09
    5.15355783E-09  5.15355783E-09  5.15355783E-09  5.15355783E-09  5.15355783E-09  5.15355783E-09  5.15355783E-09  5.15355783E-09  5.15355783E-09  5.15355783E-09  5.15355783E-09  5.15355783E-09  5.15355783E-09  5.15355783E-09  5.15355783E-09  5.15355783E-09  5.15355783E-09  5.15355783E-09  5.15355783E-09  5.15355783E-09
    5.15355783E-09  5.15355783E-09  5.15355783E-09  5.15355783E-09  5.15355783E-09  5.15355783E-09  5.15355783E-09  5.15355783E-09  5.15355783E-09  5.15355783E-09  5.15355783E-09  5.15355783E-09  5.15355783E-09  5.15355783E-09  5.15355783E-09  5.15355783E-09  5.15355783E-09  5.15355783E-09  5.15355783E-09  5.15355783E-09
    5.15355783E-09  5.15355783E-09  5.15355783E-09  5.15355783E-09  5.15355783E-09  5.15355783E-09  5.15355783E-09  5.15355783E-09  5.15355783E-09  5.15355783E-09  5.15355783E-09  5.15355783E-09  5.15355783E-09  5.15355783E-09  5.15355783E-09  5.15355783E-09  5.15355783E-09  5.15355783E-09  5.15355783E-09  5.15355783E-09
    5.15355783E-09  5.15355783E-09  5.15355783E-09
    5.15355783E-09  5.15355783E-09  5.15355783E-09  5.15355783E-09  5.15355783E-09  5.15355783E-09  5.15355783E-09  5.15355783E-09  5.15355783E-09  5.15355783E-09  5.15355783E-09  5.15355783E-09  5.15355783E-09  5.15355783E-09  5.15355783E-09  5.15355783E-09  5.15355783E-09  5.15355783E-09  5.15355783E-09  5.15355783E-09
    5.15355783E-09  5.15355783E-09  5.15355783E-09  5.15355783E-09  5.15355783E-09  5.15355783E-09  5.15355783E-09  5.15355783E-09  5.15355783E-09  5.15355783E-09  5.15355783E-09  5.15355783E-09  5.15355783E-09  5.15355783E-09  5.15355783E-09  5.15355783E-09  5.15355783E-09  5.15355783E-09  5.15355783E-09  5.15355783E-09
    5.15355783E-09  5.15355783E-09  5.15355783E-09  5.15355783E-09  5.15355783E-09  5.15355783E-09  5.15355783E-09  5.15355783E-09  5.15355783E-09  5.15355783E-09  5.15355783E-09  5.15355783E-09  5.15355783E-09  5.15355783E-09  5.15355783E-09  5.15355783E-09  5.15355783E-09  5.15355783E-09  5.15355783E-09  5.15355783E-09
    5.15355783E-09  5.15355783E-09  5.15355783E-09  5.15355783E-09  5.15355783E-09  5.15355783E-09  5.15355783E-09  5.15355783E-09  5.15355783E-09  5.15355783E-09  5.15355783E-09  5.15355783E-09  5.15355783E-09  5.15355783E-09  5.15355783E-09  5.15355783E-09  5.15355783E-09  5.15355783E-09  5.15355783E-09  5.15355783E-09
    5.15355783E-09  5.15355783E-09  5.15355783E-09  5.15355783E-09  5.15355783E-09  5.15355783E-09  5.15355783E-09  5.15355783E-09  5.15355783E-09  5.15355783E-09  5.15355783E-09  5.15355783E-09  5.15355783E-09  5.15355783E-09  5.15355783E-09  5.15355783E-09  5.15355783E-09  5.15355783E-09  5.15355783E-09  5.15355783E-09
    5.15355783E-09  5.15355783E-09  5.15355783E-09
    5.15355783E-09  5.15355783E-09  5.15355783E-09  5.15355783E-09  5.15355783E-09  5.15355783E-09  5.15355783E-09  5.15355783E-09  5.15355783E-09  5.15355783E-09  5.15355783E-09  5.15355783E-09  5.15355783E-09  5.15355783E-09  5.15355783E-09  5.15355783E-09  5.15355783E-09  5.15355783E-09  5.15355783E-09  5.15355783E-09
    5.15355783E-09  5.15355783E-09  5.15355783E-09  5.15355783E-09  5.15355783E-09  5.15355783E-09  5.15355783E-09  5.15355783E-09  5.15355783E-09  5.15355783E-09  5.15355783E-09  5.15355783E-09  5.15355783E-09  5.15355783E-09  5.15355783E-09  5.15355783E-09  5.15355783E-09  5.15355783E-09  5.15355783E-09  5.15355783E-09
    5.15355783E-09  5.15355783E-09  5.15355783E-09  5.15355783E-09  5.15355783E-09  5.15355783E-09  5.15355783E-09  5.15355783E-09  5.15355783E-09  5.15355783E-09  5.15355783E-09  5.15355783E-09  5.15355783E-09  5.15355783E-09  5.15355783E-09  5.15355783E-09  5.15355783E-09  5.15355783E-09  5.15355783E-09  5.15355783E-09
    5.15355783E-09  5.15355783E-09  5.15355783E-09  5.15355783E-09  5.15355783E-09  5.15355783E-09  5.15355783E-09  5.15355783E-09  5.15355783E-09  5.15355783E-09  5.15355783E-09  5.15355783E-09  5.15355783E-09  5.15355783E-09  5.15355783E-09  5.15355783E-09  5.15355783E-09  5.15355783E-09  5.15355783E-09  5.15355783E-09
    5.15355783E-09  5.15355783E-09  5.15355783E-09  5.15355783E-09  5.15355783E-09  5.15355783E-09  5.15355783E-09  5.15355783E-09  5.15355783E-09  5.15355783E-09  5.15355783E-09  5.15355783E-09  5.15355783E-09  5.15355783E-09  5.15355783E-09  5.15355783E-09  5.15355783E-09  5.15355783E-09  5.15355783E-09  5.15355783E-09
    5.15355783E-09  5.15355783E-09  5.15355783E-09
    5.15355783E-09  5.15355783E-09  5.15355783E-09  5.15355783E-09  5.15355783E-09  5.15355783E-09  5.15355783E-09  5.15355783E-09  5.15355783E-09  5.15355783E-09  5.15355783E-09  5.15355783E-09  5.15355783E-09  5.15355783E-09  5.15355783E-09  5.15355783E-09  5.15355783E-09  5.15355783E-09  5.15355783E-09  5.15355783E-09
    5.15355783E-09  5.15355783E-09  5.15355783E-09  5.15355783E-09  5.15355783E-09  5.15355783E-09  5.15355783E-09  5.15355783E-09  5.15355783E-09  5.15355783E-09  5.15355783E-09  5.15355783E-09  5.15355783E-09  5.15355783E-09  5.15355783E-09  5.15355783E-09  5.15355783E-09  5.15355783E-09  5.15355783E-09  5.15355783E-09
    5.15355783E-09  5.15355783E-09  5.15355783E-09  5.15355783E-09  5.15355783E-09  5.15355783E-09  5.15355783E-09  5.15355783E-09  5.15355783E-09  5.15355783E-09  5.15355783E-09  5.15355783E-09  5.15355783E-09  5.15355783E-09  5.15355783E-09  5.15355783E-09  5.15355783E-09  5.15355783E-09  5.15355783E-09  5.15355783E-09
    5.15355783E-09  5.15355783E-09  5.15355783E-09  5.15355783E-09  5.15355783E-09  5.15355783E-09  5.15355783E-09  5.15355783E-09  5.15355783E-09  5.15355783E-09  5.15355783E-09  5.15355783E-09  5.15355783E-09  5.15355783E-09  5.15355783E-09  5.15355783E-09  5.15355783E-09  5.15355783E-09  5.15355783E-09  5.15355783E-09
    5.15355783E-09  5.15355783E-09  5.15355783E-09  5.15355783E-09  5.15355783E-09  5.15355783E-09  5.15355783E-09  5.15355783E-09  5.15355783E-09  5.15355783E-09  5.15355783E-09  5.15355783E-09  5.15355783E-09  5.15355783E-09  5.15355783E-09  5.15355783E-09  5.15355783E-09  5.15355783E-09  5.15355783E-09       0.00000000
    5.15355783E-09  5.15355783E-09  5.15355783E-09
    5.15355783E-09  5.15355783E-09  5.15355783E-09  5.15355783E-09  5.15355783E-09  5.15355783E-09  5.15355783E-09  5.15355783E-09  5.15355783E-09  5.15355783E-09  5.15355783E-09  5.15355783E-09  5.15355783E-09  5.15355783E-09  5.15355783E-09  5.15355783E-09  5.15355783E-09  5.15355783E-09  5.15355783E-09  5.15355783E-09
    5.15355783E-09  5.15355783E-09  5.15355783E-09  5.15355783E-09  5.15355783E-09  5.15355783E-09  5.15355783E-09  5.15355783E-09  5.15355783E-09  5.15355783E-09  5.15355783E-09  5.15355783E-09  5.15355783E-09  5.15355783E-09  5.15355783E-09  5.15355783E-09  5.15355783E-09  5.15355783E-09  5.15355783E-09  5.15355783E-09
    5.15355783E-09  5.15355783E-09  5.15355783E-09  5.15355783E-09  5.15355783E-09  5.15355783E-09  5.15355783E-09  5.15355783E-09  5.15355783E-09  5.15355783E-09  5.15355783E-09  5.15355783E-09  5.15355783E-09  5.15355783E-09  5.15355783E-09  5.15355783E-09  5.15355783E-09  5.15355783E-09  5.15355783E-09  5.15355783E-09
    5.15355783E-09  5.15355783E-09  5.15355783E-09  5.15355783E-09  5.15355783E-09  5.15355783E-09  5.15355783E-09  5.15355783E-09  5.15355783E-09  5.15355783E-09  5.15355783E-09  5.15355783E-09  5.15355783E-09  5.15355783E-09  5.15355783E-09  5.15355783E-09  5.15355783E-09  5.15355783E-09  5.15355783E-09  5.15355783E-09
    5.15355783E-09  5.15355783E-09  5.15355783E-09  5.15355783E-09  5.15355783E-09  5.15355783E-09  5.15355783E-09  5.15355783E-09  5.15355783E-09  5.15355783E-09  5.15355783E-09  5.15355783E-09  5.15355783E-09       0.00000000       0.00000000       0.00000000  5.15355783E-09  5.15355783E-09  5.15355783E-09       0.00000000
    5.15355783E-09  5.15355783E-09  5.15355783E-09
    5.15355783E-09  5.15355783E-09  5.15355783E-09  5.15355783E-09  5.15355783E-09  5.15355783E-09  5.15355783E-09  5.15355783E-09  5.15355783E-09  5.15355783E-09  5.15355783E-09  5.15355783E-09  5.15355783E-09  5.15355783E-09  5.15355783E-09  5.15355783E-09  5.15355783E-09  5.15355783E-09  5.15355783E-09  5.15355783E-09
    5.15355783E-09  5.15355783E-09  5.15355783E-09  5.15355783E-09  5.15355783E-09  5.15355783E-09  5.15355783E-09  5.15355783E-09  5.15355783E-09  5.15355783E-09  5.15355783E-09  5.15355783E-09  5.15355783E-09  5.15355783E-09  5.15355783E-09  5.15355783E-09  5.15355783E-09  5.15355783E-09  5.15355783E-09  5.15355783E-09
    5.15355783E-09  5.15355783E-09  5.15355783E-09  5.15355783E-09  5.15355783E-09  5.15355783E-09  5.15355783E-09  5.15355783E-09  5.15355783E-09  5.15355783E-09  5.15355783E-09  5.15355783E-09  5.15355783E-09  5.15355783E-09  5.15355783E-09  5.15355783E-09  5.15355783E-09  5.15355783E-09  5.15355783E-09  5.15355783E-09
    5.15355783E-09  5.15355783E-09  5.15355783E-09  5.15355783E-09  5.15355783E-09  5.15355783E-09  5.15355783E-09  5.15355783E-09  5.15355783E-09  5.15355783E-09  5.15355783E-09  5.15355783E-09  5.15355783E-09  5.15355783E-09  5.15355783E-09  5.15355783E-09  5.15355783E-09  5.15355783E-09  5.15355783E-09  5.15355783E-09
    5.15355783E-09  5.15355783E-09  5.15355783E-09  5.15355783E-09  5.15355783E-09  5.15355783E-09  5.15355783E-09  5.15355783E-09  5.15355783E-09  5.15355783E-09  5.15355783E-09  5.15355783E-09       0.00000000       0.00000000       0.00000000       0.00000000       0.00000000       0.00000000       0.00000000       0.00000000
    5.15355783E-09  5.15355783E-09  5.15355783E-09
    5.15355783E-09  5.15355783E-09  5.15355783E-09  5.15355783E-09  5.15355783E-09  5.15355783E-09  5.15355783E-09  5.15355783E-09  5.15355783E-09  5.15355783E-09  5.15355783E-09  5.15355783E-09  5.15355783E-09  5.15355783E-09  5.15355783E-09  5.15355783E-09  5.15355783E-09  5.15355783E-09  5.15355783E-09  5.15355783E-09
    5.15355783E-09  5.15355783E-09  5.15355783E-09  5.15355783E-09  5.15355783E-09  5.15355783E-09  5.15355783E-09  5.15355783E-09  5.15355783E-09  5.15355783E-09  5.15355783E-09  5.15355783E-09  5.15355783E-09  5.15355783E-09  5.15355783E-09  5.15355783E-09  5.15355783E-09  5.15355783E-09  5.15355783E-09  5.15355783E-09
    5.15355783E-09  5.15355783E-09  5.15355783E-09  5.15355783E-09  5.15355783E-09  5.15355783E-09  5.15355783E-09  5.15355783E-09  5.15355783E-09  5.15355783E-09  5.15355783E-09  5.15355783E-09  5.15355783E-09  5.15355783E-09  5.15355783E-09  5.15355783E-09  5.15355783E-09  5.15355783E-09  5.15355783E-09  5.15355783E-09
    5.15355783E-09  5.15355783E-09  5.15355783E-09  5.15355783E-09  5.15355783E-09  5.15355783E-09  5.15355783E-09  5.15355783E-09  5.15355783E-09  5.15355783E-09  5.15355783E-09  5.15355783E-09  5.15355783E-09  5.15355783E-09  5.15355783E-09  5.15355783E-09  5.15355783E-09  5.15355783E-09  5.15355783E-09  5.15355783E-09
    5.15355783E-09  5.15355783E-09  5.15355783E-09  5.15355783E-09  5.15355783E-09  5.15355783E-09  5.15355783E-09  5.15355783E-09  5.15355783E-09  5.15355783E-09  5.15355783E-09  5.15355783E-09       0.00000000       0.00000000       0.00000000       0.00000000       0.00000000       0.00000000       0.00000000       0.00000000
    5.15355783E-09  5.15355783E-09  5.15355783E-09
    5.15355783E-09  5.15355783E-09  5.15355783E-09  5.15355783E-09  5.15355783E-09  5.15355783E-09  5.15355783E-09  5.15355783E-09  5.15355783E-09  5.15355783E-09  5.15355783E-09  5.15355783E-09  5.15355783E-09  5.15355783E-09  5.15355783E-09  5.15355783E-09  5.15355783E-09  5.15355783E-09  5.15355783E-09  5.15355783E-09
    5.15355783E-09  5.15355783E-09  5.15355783E-09  5.15355783E-09  5.15355783E-09  5.15355783E-09  5.15355783E-09  5.15355783E-09  5.15355783E-09  5.15355783E-09  5.15355783E-09  5.15355783E-09  5.15355783E-09  5.15355783E-09  5.15355783E-09  5.15355783E-09  5.15355783E-09  5.15355783E-09  5.15355783E-09  5.15355783E-09
    5.15355783E-09  5.15355783E-09  5.15355783E-09  5.15355783E-09  5.15355783E-09  5.15355783E-09  5.15355783E-09  5.15355783E-09  5.15355783E-09  5.15355783E-09  5.15355783E-09  5.15355783E-09  5.15355783E-09  5.15355783E-09  5.15355783E-09  5.15355783E-09  5.15355783E-09  5.15355783E-09  5.15355783E-09  5.15355783E-09
    5.15355783E-09  5.15355783E-09  5.15355783E-09  5.15355783E-09  5.15355783E-09  5.15355783E-09  5.15355783E-09  5.15355783E-09  5.15355783E-09  5.15355783E-09  5.15355783E-09  5.15355783E-09  5.15355783E-09  5.15355783E-09  5.15355783E-09  5.15355783E-09  5.15355783E-09  5.15355783E-09  5.15355783E-09  5.15355783E-09