BEGIN griddata
  strt
    INTERNAL  FACTOR  1.0
       -44.00000000     -44.00000000     -44.00000000     -44.00000000     -44.00000000     -44.00000000     -44.00000000     -44.00000000     -44.00000000     -44.00000000     -44.00000000     -44.00000000     -44.00000000     -44.00000000     -44.00000000     -44.00000000     -44.00000000     -44.00000000     -44.00000000     -44.00000000
       -44.00000000     -44.00000000     -44.00000000     -44.00000000     -44.00000000     -44.00000000     -44.00000000     -44.00000000     -44.00000000     -44.00000000     -44.00000000     -44.00000000     -44.00000000     -44.00000000     -44.00000000     -44.00000000     -44.00000000     -44.00000000     -44.00000000     -44.00000000
       -44.00000000     -44.00000000     -44.00000000     -44.00000000     -44.00000000     -44.00000000     -44.00000000     -44.00000000     -44.00000000     -44.00000000     -44.00000000     -44.00000000     -44.00000000     -44.00000000     -44.00000000     -44.00000000     -44.00000000     -44.00000000     -44.00000000     -44.00000000
       -44.00000000     -44.00000000     -44.00000000     -44.00000000     -44.00000000     -44.00000000     -44.00000000     -44.00000000     -44.00000000     -44.00000000     -44.00000000     -44.00000000     -44.00000000     -44.00000000     -44.00000000     -44.00000000     -44.00000000     -44.00000000     -44.00000000     -44.00000000
       -44.00000000     -44.00000000     -44.00000000     -44.00000000     -44.00000000     -44.00000000     -44.00000000     -44.00000000     -44.00000000     -37.18000031     -41.13999939     -43.24000168     -42.52999878     -42.81000137     -42.50000000     -42.15000153     -44.50000000     -44.00000000     -44.00000000     -44.00000000
       -44.00000000     -44.00000000     -44.00000000
       -44.00000000     -44.00000000     -44.00000000     -44.00000000     -44.00000000     -44.00000000     -44.00000000     -44.00000000     -44.00000000     -44.00000000     -44.00000000     -44.00000000     -44.00000000     -44.00000000     -44.00000000     -44.00000000     -44.00000000     -44.00000000     -44.00000000     -44.00000000
       -44.00000000     -44.00000000     -44.00000000     -44.00000000     -44.00000000     -44.00000000     -44.00000000     -44.00000000     -44.00000000     -44.00000000     -44.00000000     -44.00000000     -44.00000000     -44.00000000     -44.00000000     -44.00000000     -44.00000000     -44.00000000     -44.00000000     -44.00000000
       -44.00000000     -44.00000000     -44.00000000     -44.00000000     -44.00000000     -44.00000000     -44.00000000     -44.00000000     -44.00000000     -44.00000000     -44.00000000     -44.00000000     -44.00000000     -44.00000000     -44.00000000     -44.00000000     -44.00000000     -44.00000000     -44.00000000     -44.00000000
       -44.00000000     -44.00000000     -44.00000000     -44.00000000     -44.00000000     -44.00000000     -44.00000000     -44.00000000     -44.00000000     -44.00000000     -44.00000000     -44.00000000     -44.00000000     -44.00000000     -44.00000000     -44.00000000     -44.00000000     -44.00000000     -44.00000000     -44.00000000
       -44.00000000     -44.00000000     -44.00000000     -44.00000000     -44.00000000     -44.00000000     -44.00000000     -44.00000000     -44.00000000     -38.18000031     -42.50000000     -40.41999817     -17.52000046      -5.75000000      -4.84999847       4.40000153     -36.50000000     -44.00000000     -44.00000000     -44.00000000
       -44.00000000     -44.00000000     -44.00000000
       -44.00000000     -44.00000000     -44.00000000     -44.00000000     -44.00000000     -44.00000000     -44.00000000     -44.00000000     -44.00000000     -44.00000000     -44.00000000     -44.00000000     -44.00000000     -44.00000000     -44.00000000     -44.00000000     -44.00000000     -44.00000000     -44.00000000     -44.00000000
       -44.00000000     -44.00000000     -44.00000000     -44.00000000     -44.00000000     -44.00000000     -44.00000000     -44.00000000     -44.00000000     -44.00000000     -44.00000000     -44.00000000     -44.00000000     -44.00000000     -44.00000000     -44.00000000     -44.00000000     -44.00000000     -44.00000000     -44.00000000
       -44.00000000     -44.00000000     -44.00000000     -44.00000000     -44.00000000     -44.00000000     -44.00000000     -44.00000000     -44.00000000     -44.00000000     -44.00000000     -44.00000000     -44.00000000     -44.00000000     -44.00000000     -44.00000000     -44.00000000     -44.00000000     -44.00000000     -44.00000000
       -44.00000000     -44.00000000     -44.00000000     -44.00000000     -44.00000000     -44.00000000     -44.00000000     -44.00000000     -44.00000000     -44.00000000     -44.00000000     -44.00000000     -44.00000000     -44.00000000     -44.00000000     -44.00000000     -44.00000000     -44.00000000     -44.00000000     -44.00000000
       -44.00000000     -44.00000000     -44.00000000     -44.00000000     -44.00000000     -44.00000000     -44.00000000     -44.00000000     -44.00000000     -41.38999939     -43.88999939     -38.47000122      -6.22999954      -7.52999878      -8.50000000       1.22000122    -133.82859802    -129.33290100     -34.52999878     -44.00000000
       -44.00000000     -44.00000000     -44.00000000
       -44.00000000     -44.00000000     -44.00000000     -44.00000000     -44.00000000     -44.00000000     -44.00000000     -44.00000000     -44.00000000     -44.00000000     -44.00000000     -44.00000000     -44.00000000     -44.00000000     -44.00000000     -44.00000000     -44.00000000     -44.00000000     -44.00000000     -44.00000000
       -44.00000000     -44.00000000     -44.00000000     -44.00000000     -44.00000000     -44.00000000     -44.00000000     -44.00000000     -44.00000000     -44.00000000     -44.00000000     -44.00000000     -44.00000000     -44.00000000     -44.00000000     -44.00000000     -44.00000000     -44.00000000     -44.00000000     -44.00000000
       -44.00000000     -44.00000000     -44.00000000     -44.00000000     -44.00000000     -44.00000000     -44.00000000     -44.00000000     -44.00000000     -44.00000000     -44.00000000     -44.00000000     -44.00000000     -44.00000000     -44.00000000     -44.00000000     -44.00000000     -44.00000000     -44.00000000     -44.00000000
       -44.00000000     -44.00000000     -44.00000000     -44.00000000     -44.00000000     -44.00000000     -44.00000000     -44.00000000     -44.00000000     -44.00000000     -44.00000000     -44.00000000     -44.00000000     -44.00000000     -44.00000000     -44.00000000     -44.00000000     -44.00000000     -44.00000000     -44.00000000
       -44.00000000     -44.00000000     -44.00000000     -44.00000000     -44.00000000     -44.00000000     -44.00000000     -44.00000000     -44.00000000     -40.11999893     -43.56999969     -43.93000031     -28.45000076      -1.34000015       4.06000137    -129.94470215    -125.61740112    -120.56140137    -115.03630066    -107.96759796
       -44.00000000     -44.00000000     -89.91472626
       -44.00000000     -44.00000000     -44.00000000     -44.00000000     -44.00000000     -44.00000000     -44.00000000     -44.00000000     -44.00000000     -44.00000000     -44.00000000     -44.00000000     -44.00000000     -44.00000000     -44.00000000     -44.00000000     -44.00000000     -44.00000000     -44.00000000     -44.00000000
       -44.00000000     -44.00000000     -44.00000000     -44.00000000     -44.00000000     -44.00000000     -44.00000000     -44.00000000     -44.00000000     -44.00000000     -44.00000000     -44.00000000     -44.00000000     -44.00000000     -44.00000000     -44.00000000     -44.00000000     -44.00000000     -44.00000000     -44.00000000
       -44.00000000     -44.00000000     -44.00000000     -44.00000000     -44.00000000     -44.00000000     -44.00000000     -44.00000000     -44.00000000     -44.00000000     -44.00000000     -44.00000000     -44.00000000     -44.00000000     -44.00000000     -44.00000000     -44.00000000     -44.00000000     -44.00000000     -44.00000000
       -44.00000000     -44.00000000     -44.00000000     -44.00000000     -44.00000000     -44.00000000     -44.00000000     -44.00000000     -44.00000000     -44.00000000     -44.00000000     -44.00000000     -44.00000000     -44.00000000     -44.00000000     -44.00000000     -44.00000000     -44.00000000     -44.00000000     -44.00000000
       -44.00000000     -44.00000000     -44.00000000     -44.00000000     -44.00000000     -44.00000000     -44.00000000     -44.00000000     -44.00000000     -40.15999985     -42.95999908     -43.93000031     -33.18000031       2.20000076    -126.08479309    -121.94190216    -117.40830231    -111.13629913    -105.46839905     -98.17209625
       -90.51835632     -83.65276337     -79.09169006
       -44.00000000     -44.00000000     -44.00000000     -44.00000000     -44.00000000     -44.00000000     -44.00000000     -44.00000000     -44.00000000     -44.00000000     -44.00000000     -44.00000000     -44.00000000     -44.00000000     -44.00000000     -44.00000000     -44.00000000     -44.00000000     -44.00000000     -44.00000000
       -44.00000000     -44.00000000     -44.00000000     -44.00000000     -44.00000000     -44.00000000     -44.00000000     -44.00000000     -44.00000000     -44.00000000     -44.00000000     -44.00000000     -44.00000000     -44.00000000     -44.00000000     -44.00000000     -44.00000000     -44.00000000     -44.00000000     -44.00000000
       -44.00000000     -44.00000000     -44.00000000     -44.00000000     -44.00000000     -44.00000000     -44.00000000     -44.00000000     -44.00000000     -44.00000000     -44.00000000     -44.00000000     -44.00000000     -44.00000000     -44.00000000     -44.00000000     -44.00000000     -44.00000000     -44.00000000     -44.00000000
       -44.00000000     -44.00000000     -44.00000000     -44.00000000     -44.00000000     -44.00000000     -44.00000000     -44.00000000     -44.00000000     -44.00000000     -44.00000000     -44.00000000     -44.00000000     -44.00000000     -44.00000000     -44.00000000     -44.00000000     -44.00000000     -44.00000000     -44.00000000
       -44.00000000     -44.00000000     -44.00000000     -44.00000000     -44.00000000     -44.00000000     -44.00000000     -44.00000000     -44.00000000     -33.98999786     -43.93000031     -43.93000031     -43.93000031    -122.24159241    -118.28520203    -114.27940369    -108.64080048    -102.40910339     -95.62899780     -89.14615631
       -80.89924622     -72.24102783     -72.06183624
       -44.00000000     -44.00000000     -44.00000000     -44.00000000     -44.00000000     -44.00000000     -44.00000000     -44.00000000     -44.00000000     -44.00000000     -44.00000000     -44.00000000     -44.00000000     -44.00000000     -44.00000000     -44.00000000     -44.00000000     -44.00000000     -44.00000000     -44.00000000
       -44.00000000     -44.00000000     -44.00000000     -44.00000000     -44.00000000     -44.00000000     -44.00000000     -44.00000000     -44.00000000     -44.00000000     -44.00000000     -44.00000000     -44.00000000     -44.00000000     -44.00000000     -44.00000000     -44.00000000     -44.00000000     -44.00000000     -44.00000000
       -44.00000000     -44.00000000     -44.00000000     -44.00000000     -44.00000000     -44.00000000     -44.00000000     -44.00000000     -44.00000000     -44.00000000     -44.00000000     -44.00000000     -44.00000000     -44.00000000     -44.00000000     -44.00000000     -44.00000000     -44.00000000     -44.00000000     -44.00000000
       -44.00000000     -44.00000000     -44.00000000     -44.00000000     -44.00000000     -44.00000000     -44.00000000     -44.00000000     -44.00000000     -44.00000000     -44.00000000     -44.00000000     -44.00000000     -44.00000000     -44.00000000     -44.00000000     -44.00000000     -44.00000000     -44.00000000     -44.00000000
       -44.00000000     -44.00000000     -44.00000000     -44.00000000     -44.00000000     -44.00000000     -44.00000000     -44.00000000     -44.00000000     -41.72999954     -43.93000031     -43.93000031     -43.93000031     -16.03000069    -111.14939880    -106.21369934    -100.73300171     -94.85700226     -88.44821167     -82.05507660
       -73.85053253     -64.36628723     -73.77256012
       -44.00000000     -44.00000000     -44.00000000     -44.00000000     -44.00000000     -44.00000000     -44.00000000     -44.00000000     -44.00000000     -44.00000000     -44.00000000     -44.00000000     -44.00000000     -44.00000000     -44.00000000     -44.00000000     -44.00000000     -44.00000000     -44.00000000     -44.00000000
       -44.00000000     -44.00000000     -44.00000000     -44.00000000     -44.00000000     -44.00000000     -44.00000000     -44.00000000     -44.00000000     -44.00000000     -44.00000000     -44.00000000     -44.00000000     -44.00000000     -44.00000000     -44.00000000     -44.00000000     -44.00000000     -44.00000000     -44.00000000
       -44.00000000     -44.00000000     -44.00000000     -44.00000000     -44.00000000     -44.00000000     -44.00000000     -44.00000000     -44.00000000     -44.00000000     -44.00000000     -44.00000000     -44.00000000     -44.00000000     -44.00000000     -44.00000000     -44.00000000     -44.00000000     -44.00000000     -44.00000000
       -44.00000000     -44.00000000     -44.00000000     -44.00000000     -44.00000000     -44.00000000     -44.00000000     -44.00000000     -44.00000000     -44.00000000     -44.00000000     -44.00000000     -44.00000000     -44.00000000     -44.00000000     -44.00000000     -44.00000000     -44.00000000     -44.00000000     -44.00000000
       -44.00000000     -44.00000000     -44.00000000     -44.00000000     -44.00000000     -44.00000000     -44.00000000     -44.00000000     -44.00000000     -38.34999847     -43.93000031     -43.93000031     -43.93000031     -21.11000061     -11.63999939     -20.81999969     -93.89306641     -88.55937958     -82.79628754     -77.00984955
       -70.04646301     -68.33048248     -82.71869659
       -44.00000000     -44.00000000     -44.00000000     -44.00000000     -44.00000000     -44.00000000     -44.00000000     -44.00000000     -44.00000000     -44.00000000     -44.00000000     -44.00000000     -44.00000000     -44.00000000     -44.00000000     -44.00000000     -44.00000000     -44.00000000     -44.00000000     -44.00000000
       -44.00000000     -44.00000000     -44.00000000     -44.00000000     -44.00000000     -44.00000000     -44.00000000     -44.00000000     -44.00000000     -44.00000000     -44.00000000     -44.00000000     -44.00000000     -44.00000000     -44.00000000     -44.00000000     -44.00000000     -44.00000000     -44.00000000     -44.00000000
       -44.00000000     -44.00000000     -44.00000000     -44.00000000     -44.00000000     -44.00000000     -44.00000000     -44.00000000     -44.00000000     -44.00000000     -44.00000000     -44.00000000     -44.00000000     -44.00000000     -44.00000000     -44.00000000     -44.00000000     -44.00000000     -44.00000000     -44.00000000
       -44.00000000     -44.00000000     -44.00000000     -44.00000000     -44.00000000     -44.00000000     -44.00000000     -44.00000000     -44.00000000     -44.00000000     -44.00000000     -44.00000000     -44.00000000     -44.00000000     -44.00000000     -44.00000000     -44.00000000     -44.00000000     -44.00000000     -44.00000000
       -44.00000000     -44.00000000     -44.00000000     -44.00000000     -44.00000000     -44.00000000     -44.00000000     -44.00000000     -44.00000000     -37.02000046     -43.93000031     -43.93000031     -43.93000031     -22.40999985      -7.93999863     -92.53926086     -88.10571289     -83.45076752     -78.54871368     -73.80209351
       -70.01898956     -78.39650726     -92.39842224
       -44.00000000     -44.00000000     -44.00000000     -44.00000000     -44.00000000     -44.00000000     -44.00000000     -44.00000000     -44.00000000     -44.00000000     -44.00000000     -44.00000000     -44.00000000     -44.00000000     -44.00000000     -44.00000000     -44.00000000     -44.00000000     -44.00000000     -44.00000000
       -44.00000000     -44.00000000     -44.00000000     -44.00000000     -44.00000000     -44.00000000     -44.00000000     -44.00000000     -44.00000000     -44.00000000     -44.00000000     -44.00000000     -44.00000000     -44.00000000     -44.00000000     -44.00000000     -44.00000000     -44.00000000     -44.00000000     -44.00000000
       -44.00000000     -44.00000000     -44.00000000     -44.00000000     -44.00000000     -44.00000000     -44.00000000     -44.00000000     -44.00000000     -44.00000000     -44.00000000     -44.00000000     -44.00000000     -44.00000000     -44.00000000     -44.00000000     -44.00000000     -44.00000000     -44.00000000     -44.00000000
       -44.00000000     -44.00000000     -44.00000000     -44.00000000     -44.00000000     -44.00000000     -44.00000000     -44.00000000     -44.00000000     -44.00000000     -44.00000000     -44.00000000     -44.00000000     -44.00000000     -44.00000000     -44.00000000     -44.00000000     -44.00000000     -44.00000000     -44.00000000
       -44.00000000     -44.00000000     -44.00000000     -44.00000000     -44.00000000     -44.00000000     -44.00000000     -44.00000000     -44.00000000     -41.49000168     -43.93000031     -43.93000031     -43.59999847     -35.15000153     -14.78000069     -87.14565277     -24.13999939     -79.58399963     -75.89723206     -73.18621826
       -78.01701355     -88.26648712    -102.31620026
       -44.00000000     -44.00000000     -44.00000000     -44.00000000     -44.00000000     -44.00000000     -44.00000000     -44.00000000     -44.00000000     -44.00000000     -44.00000000     -44.00000000     -44.00000000     -44.00000000     -44.00000000     -44.00000000     -44.00000000     -44.00000000     -44.00000000     -44.00000000
       -44.00000000     -44.00000000     -44.00000000     -44.00000000     -44.00000000     -44.00000000     -44.00000000     -44.00000000     -44.00000000     -44.00000000     -44.00000000     -44.00000000     -44.00000000     -44.00000000     -44.00000000     -44.00000000     -44.00000000     -44.00000000     -44.00000000     -44.00000000
       -44.00000000     -44.00000000     -44.00000000     -44.00000000     -44.00000000     -44.00000000     -44.00000000     -44.00000000     -44.00000000     -44.00000000     -44.00000000     -44.00000000     -44.00000000     -44.00000000     -44.00000000     -44.00000000     -44.00000000     -44.00000000     -44.00000000     -44.00000000
       -44.00000000     -44.00000000     -44.00000000     -44.00000000     366.54000854     334.23999023     388.77999878     276.67999268     288.05999756     291.66000366     218.89999390     219.42001343     172.72000122     158.75999451     145.63999939     127.58000183     100.46000671      93.47999573      89.16000366     100.38000488
       112.10000610     126.55999756     105.91999817      82.81999969      47.23000336      31.01000214       6.20000076     -22.29999924     -36.54000092     -43.66999817     -43.93000031     -43.93000031     -43.93000031     -28.34999847     -36.56000137     -33.06999969     -29.22000122     -77.17587280     -75.49797821     -78.05638123
       -86.93839264     -97.82920074    -112.04830170
       -44.00000000     -44.00000000     -44.00000000     -44.00000000     -44.00000000     -44.00000000     -44.00000000     -44.00000000     -44.00000000     -44.00000000     -44.00000000     -44.00000000     -44.00000000     -44.00000000     -44.00000000     -44.00000000     -44.00000000     -44.00000000     -44.00000000     -44.00000000
       -44.00000000     -44.00000000     -44.00000000     -44.00000000     -44.00000000     -44.00000000     -44.00000000     -44.00000000     -44.00000000     -44.00000000     -44.00000000     -44.00000000     -44.00000000     -44.00000000     -44.00000000     -44.00000000     -44.00000000     -44.00000000     -44.00000000     -44.00000000
       -44.00000000     -44.00000000     -44.00000000     -44.00000000     -44.00000000     -44.00000000     -44.00000000     -44.00000000     -44.00000000     -44.00000000     -44.00000000     -44.00000000     -44.00000000     -44.00000000     -44.00000000     -44.00000000     -44.00000000     -44.00000000     -44.00000000     -44.00000000
       -44.00000000     -44.00000000     -44.00000000     -44.00000000     310.51998901     339.38000488     368.88000488     248.10000610     211.24000549     213.48001099     199.80000305     182.46000671     168.10000610     162.67999268     154.53999329     110.30000305     111.53999329      94.33999634      91.66000366      83.58000183
       102.97999573     118.02000427      78.95999908      76.59999847      51.01000214      27.44000244     -16.53000069     -31.72000122     -41.25000000     -43.77000046     -43.93000031     -43.93000031     -42.08000183     -43.93000031     -43.93000031     -43.93000031     -77.65033722     -76.73444366     -79.10955811     -86.22186279
       -95.66889954    -107.06050110    -121.50309753
       -44.00000000     -44.00000000     -44.00000000     -44.00000000     -44.00000000     -44.00000000     -44.00000000     -44.00000000     -44.00000000     -44.00000000     -44.00000000     -44.00000000     -44.00000000     -44.00000000     -44.00000000     -44.00000000     -44.00000000     -44.00000000     -44.00000000     -44.00000000
       -44.00000000     -44.00000000     -44.00000000     -44.00000000     -44.00000000     -44.00000000     -44.00000000     -44.00000000     -44.00000000     -44.00000000     -44.00000000     -44.00000000     -44.00000000     -44.00000000     -44.00000000     -44.00000000     -44.00000000     -44.00000000     -44.00000000     -44.00000000
       -44.00000000     -44.00000000     -44.00000000     -44.00000000     -44.00000000     -44.00000000     -44.00000000     -44.00000000     -44.00000000     -44.00000000     -44.00000000     -44.00000000     -44.00000000     -44.00000000     -44.00000000     -44.00000000     -44.00000000     -44.00000000     -44.00000000     -44.00000000
       -44.00000000     -44.00000000     -44.00000000     -44.00000000     321.33999634     358.01998901     356.23999023     343.94000244     230.45999146     185.02000427     253.32000732     196.36000061     174.30000305     168.02000427     172.75999451     158.38000488     137.55999756      96.24000549      84.25999451      80.55999756
        93.97999573      89.97999573      95.69999695      32.19999695      24.76999664      19.95000076     -22.32999992     -29.56999969     -42.25000000     -43.93000031     -86.39205933     -84.15440369     -82.09211731     -80.23529816     -78.65245819     -77.51052094     -77.25914764     -79.39530182     -86.60151672     -95.21170044
      -104.13860321    -115.95510101    -130.67340088
       -44.00000000     -44.00000000     -44.00000000     -44.00000000     -44.00000000     -44.00000000     -44.00000000     -44.00000000     -44.00000000     -44.00000000     -44.00000000     -44.00000000     -44.00000000     -44.00000000     -44.00000000     -44.00000000     -44.00000000     -44.00000000     -44.00000000     -44.00000000
       -44.00000000     -44.00000000     -44.00000000     -44.00000000     -44.00000000     -44.00000000     -44.00000000     -44.00000000     -44.00000000     -44.00000000     -44.00000000     -44.00000000     -44.00000000     -44.00000000     -44.00000000     -44.00000000     -44.00000000     -44.00000000     -44.00000000     -44.00000000
       -44.00000000     -44.00000000     -44.00000000     -44.00000000     -44.00000000     -44.00000000     -44.00000000     -44.00000000     -44.00000000     -44.00000000     -44.00000000     -44.00000000     -44.00000000     -44.00000000     -44.00000000     -44.00000000     -44.00000000     -44.00000000     -44.00000000     -44.00000000
       -44.00000000     -44.00000000     -44.00000000     -44.00000000     343.85998535     376.70001221     343.04000854     227.92001343     182.38000488     185.58000183     184.61999512     267.60000610     195.05999756     175.69999695     196.69999695     166.00000000     138.47999573     112.75999451      83.91999817      84.86000061
       109.10000610      85.61999512      56.36000061      74.29000092      30.16000366      -2.40999985     -34.13999939     -38.48999786     -41.34000015     -43.93000031     -81.57019043     -79.91383362     -78.51822662     -77.46000671     -76.90157318     -77.22847748     -79.51640320     -85.99685669     -93.95551300    -102.95480347
      -112.31310272    -124.51269531    -139.55400085
       -44.00000000     -44.00000000     -44.00000000     -44.00000000     -44.00000000     -44.00000000     -44.00000000     -44.00000000     -44.00000000     -44.00000000     -44.00000000     -44.00000000     -44.00000000     -44.00000000     -44.00000000     -44.00000000     -44.00000000     -44.00000000     -44.00000000     -44.00000000
       -44.00000000     -44.00000000     -44.00000000     -44.00000000     -44.00000000     -44.00000000     -44.00000000     -44.00000000     -44.00000000     -44.00000000     -44.00000000     -44.00000000     -44.00000000     -44.00000000     -44.00000000     -44.00000000     -44.00000000     -44.00000000     -44.00000000     -44.00000000
       -44.00000000     -44.00000000     -44.00000000     -44.00000000     -44.00000000     -44.00000000     -44.00000000     -44.00000000     -44.00000000     -44.00000000     -44.00000000     -44.00000000     -44.00000000     -44.00000000     -44.00000000     -44.00000000     -44.00000000     -44.00000000     -44.00000000     -44.00000000
       -44.00000000     -44.00000000     -44.00000000     -44.00000000     335.27999878     310.26000977     259.10000610     186.13999939     159.11999512     146.97999573     159.33999634     211.53999329     196.69999695     189.60000610     175.50000000     142.83999634     129.32000732      97.52000427     101.47999573     105.24000549
       117.32000732      95.03999329      49.45999908      68.93000031      23.58000183     -14.11000061     -30.40000153       7.29000092     -43.93000031     -78.87133789     -77.57997131     -76.59261322     -75.99302673     -75.94043732     -76.77644348     -79.34026337     -85.36036682     -92.79711914    -101.08219910    -110.42199707
      -120.17400360    -132.73890686    -148.15730286
       -44.00000000     -44.00000000     -44.00000000     -44.00000000     -44.00000000     -44.00000000     -44.00000000     -44.00000000     -44.00000000     -44.00000000     -44.00000000     -44.00000000     -44.00000000     -44.00000000     -44.00000000     -44.00000000     -44.00000000     -44.00000000     -44.00000000     -44.00000000
       -44.00000000     -44.00000000     -44.00000000     -44.00000000     -44.00000000     -44.00000000     -44.00000000     -44.00000000     -44.00000000     -44.00000000     -44.00000000     -44.00000000     -44.00000000     -44.00000000     -44.00000000     -44.00000000     -44.00000000     -44.00000000     -44.00000000     -44.00000000
       -44.00000000     -44.00000000     -44.00000000     -44.00000000     -44.00000000     -44.00000000     -44.00000000     -44.00000000     -44.00000000     -44.00000000     -44.00000000     -44.00000000     -44.00000000     -44.00000000     -44.00000000     -44.00000000     -44.00000000     -44.00000000     -44.00000000     -44.00000000
       -44.00000000     -44.00000000     -44.00000000     -44.00000000     214.89999390     185.50000000     188.74000549     143.27999878     140.17999268     137.41999817     160.55999756     196.69999695     199.00000000     174.91999817     159.91999817     142.05999756     129.69999695     131.10000610     133.02000427     118.91999817
       123.75999451     101.74000549      66.80000305      33.69000244      37.51000214     -17.10000038      -8.81999969     -30.77000046     -43.93000031     -75.13530731     -74.51981354     -74.33078766     -74.72721100     -76.01988983     -78.90225983     -84.66945648     -91.65923309     -99.36830139    -107.94149780    -117.58940125
      -127.71749878    -140.66310120    -156.54499817
       -44.00000000     -44.00000000     -44.00000000     -44.00000000     -44.00000000     -44.00000000     -44.00000000     -44.00000000     -44.00000000     -44.00000000     -44.00000000     -44.00000000     -44.00000000     -44.00000000     -44.00000000     -44.00000000     -44.00000000     -44.00000000     -44.00000000     -44.00000000
       -44.00000000     -44.00000000     -44.00000000     -44.00000000     -44.00000000     -44.00000000     -44.00000000     -44.00000000     -44.00000000     -44.00000000     -44.00000000     -44.00000000     -44.00000000     -44.00000000     -44.00000000     -44.00000000     -44.00000000     -44.00000000     -44.00000000     -44.00000000
       -44.00000000     -44.00000000     -44.00000000     -44.00000000     -44.00000000     -44.00000000     -44.00000000     -44.00000000     -44.00000000     -44.00000000     -44.00000000     -44.00000000     -44.00000000     -44.00000000     -44.00000000     -44.00000000     -44.00000000     -44.00000000     -44.00000000     -44.00000000
       -44.00000000     -44.00000000     -44.00000000     -44.00000000     137.96000671     132.94000244     124.36000061     121.25999451     126.74000549     129.67999268     147.41999817     163.46000671     159.03999329     154.08000183     150.53999329     137.60000610     134.32000732     136.55999756     141.22000122     127.52000427