ptf ~
BEGIN options
  SAVE_FLOWS
END options

BEGIN dimensions
  MAXBOUND  113
END dimensions

BEGIN period  1
  2 175 49     132.00000000   ~    c_Tech     ~  130.00000000
  2 175 50     128.99896796   ~    c_Tech     ~  126.99896796
  2 175 51     124.91569499   ~    c_Tech     ~  122.91569499
  2 175 52     120.87088318   ~    c_Tech     ~  118.87088318
  2 175 53     116.89447448   ~    c_Tech     ~  114.89447448
  2 175 54     112.87872983   ~    c_Tech     ~  110.87872983
  2 175 55     108.54139973   ~    c_Tech     ~  106.54139973
  2 175 56     104.76000000   ~    c_Tech     ~  102.76000000
  2 174 56     103.25152201   ~    c_Tech     ~  101.25152201
  2 173 56     101.52631122   ~    c_Tech     ~   99.52631122
  2 172 56     100.36617212   ~    c_Tech     ~   98.36617212
  2 172 57      99.44982702   ~    c_Tech     ~   97.44982702
  2 171 57      97.76000226   ~    c_Tech     ~   95.76000226
  2 171 58      95.81000000   ~    c_Tech     ~   93.81000000
  2 171 59      93.49293537   ~    c_Tech     ~   91.49293537
  2 171 60      91.18996219   ~    c_Tech     ~   89.18996219
  2 171 61      88.88265061   ~    c_Tech     ~   86.88265061
  2 171 62      86.72248272   ~    c_Tech     ~   84.72248272
  2 170 62      85.57146449   ~    c_Tech     ~   83.57146449
  2 170 63      84.28000000   ~    c_Tech     ~   82.28000000
  2 170 64      82.74365543   ~    c_Tech     ~   80.74365543
  2 170 65      81.08779958   ~    c_Tech     ~   79.08779958
  2 170 66      79.91926541   ~    c_Tech     ~   77.91926541
  2 169 66      78.94784084   ~    c_Tech     ~   76.94784084
  2 169 67      77.79853732   ~    c_Tech     ~   75.79853732
  2 168 67      76.78000000   ~    c_Tech     ~   74.78000000
  2 167 68      74.83159939   ~    c_Tech     ~   72.83159939
  5 164 77      60.76185817   ~    c_Tech     ~   58.76185817
  2 162 76      59.17185904   ~    c_Tech     ~   57.17185904
  5 162 77      58.59208830   ~    c_Tech     ~   56.59208830
  2 161 77      57.64090110   ~    c_Tech     ~   55.64090110
  2 161 78      56.49194252   ~    c_Tech     ~   54.49194252
  2 160 79      54.96251160   ~    c_Tech     ~   52.96251160
  2 160 80      54.13200916   ~    c_Tech     ~   52.13200916
  2 159 80      53.24351402   ~    c_Tech     ~   51.24351402
  2 159 81      52.58204975   ~    c_Tech     ~   50.58204975
  2 158 81      51.76364118   ~    c_Tech     ~   49.76364118
  2 158 82      50.91777010   ~    c_Tech     ~   48.91777010
  2 157 82      50.23351577   ~    c_Tech     ~   48.23351577
  2 157 83      49.30877487   ~    c_Tech     ~   47.30877487
  2 156 83      48.61875140   ~    c_Tech     ~   46.61875140
  2 156 84      47.82000000   ~    c_Tech     ~   45.82000000
  2 155 84      46.64002675   ~    c_Tech     ~   44.64002675
  2 155 85      45.52600437   ~    c_Tech     ~   43.52600437
  2 155 86      44.18195173   ~    c_Tech     ~   42.18195173
  2 154 86      43.17131545   ~    c_Tech     ~   41.17131545
  2 154 87      41.88935350   ~    c_Tech     ~   39.88935350
  2 155 87      40.97669307   ~    c_Tech     ~   38.97669307
  2 154 88      39.50000000   ~    c_Tech     ~   37.50000000
  2 154 89      38.82963970   ~    c_Tech     ~   36.82963970
  2 153 89      38.11084777   ~    c_Tech     ~   36.11084777
  2 152 89      37.42951370   ~    c_Tech     ~   35.42951370
  2 152 90      36.81109392   ~    c_Tech     ~   34.81109392
  2 152 91      36.01685617   ~    c_Tech     ~   34.01685617
  2 151 91      35.49455783   ~    c_Tech     ~   33.49455783
  2 151 92      34.58409900   ~    c_Tech     ~   32.58409900
  2 151 93      33.89917178   ~    c_Tech     ~   31.89917178
  2 150 93      33.42022253   ~    c_Tech     ~   31.42022253
  2 150 94      32.42823324   ~    c_Tech     ~   30.42823324
  2 149 94      31.34087199   ~    c_Tech     ~   29.34087199
  2 149 95      30.84870538   ~    c_Tech     ~   28.84870538
  2 148 94      30.74798750   ~    c_Tech     ~   28.74798750
  2 148 95      30.24756287   ~    c_Tech     ~   28.24756287
  2 147 95      29.35567749   ~    c_Tech     ~   27.35567749
  2 146 95      28.54471806   ~    c_Tech     ~   26.54471806
  2 146 96      27.70000000   ~    c_Tech     ~   25.70000000
  2 146 97      26.37093789   ~    c_Tech     ~   24.37093789
  2 146 98      25.54773192   ~    c_Tech     ~   23.54773192
  2 147 98      24.84531201   ~    c_Tech     ~   22.84531201
  2 147 99      23.69224068   ~    c_Tech     ~   21.69224068
  2 147 100      22.57292628   ~    c_Tech     ~   20.57292628
  2 146 100      21.82112598   ~    c_Tech     ~   19.82112598
  2 146 101      21.05048706   ~    c_Tech     ~   19.05048706
  2 145 101      19.88000000   ~    c_Tech     ~   17.88000000
  2 144 101      19.84093447   ~    c_Tech     ~   17.84093447
  2 144 102      19.79959194   ~    c_Tech     ~   17.79959194
  2 143 102      19.75007148   ~    c_Tech     ~   17.75007148
  2 143 103      19.70000000   ~    c_Tech     ~   17.70000000
  2 143 104      18.86640302   ~    c_Tech     ~   16.86640302
  2 142 104      18.41814992   ~    c_Tech     ~   16.41814992
  2 143 105      18.09210884   ~    c_Tech     ~   16.09210884
  2 142 105      17.65083904   ~    c_Tech     ~   15.65083904
  2 143 106      16.96566163   ~    c_Tech     ~   14.96566163
  2 143 107      16.07493482   ~    c_Tech     ~   14.07493482
  2 143 108      15.20171771   ~    c_Tech     ~   13.20171771
  2 143 109      14.45103367   ~    c_Tech     ~   12.45103367
  2 142 109      13.99867139   ~    c_Tech     ~   11.99867139
  2 142 110      13.42202720   ~    c_Tech     ~   11.42202720
  2 142 111      12.54698444   ~    c_Tech     ~   10.54698444
  2 142 112      11.66841064   ~    c_Tech     ~    9.66841064
  2 142 113      10.77605742   ~    c_Tech     ~    8.77605742
  2 142 114       9.88198628   ~    c_Tech     ~    7.88198628
  2 142 115       9.00000000   ~    c_Tech     ~    7.00000000
  2 142 116       8.46412517   ~    c_Tech     ~    6.46412517
  2 142 117       7.92090479   ~    c_Tech     ~    5.92090479
  2 142 118       7.34931809   ~    c_Tech     ~    5.34931809
  2 142 119       6.97742188   ~    c_Tech     ~    4.97742188
  2 143 119       6.67864934   ~    c_Tech     ~    4.67864934
  2 143 120       6.18787702   ~    c_Tech     ~    4.18787702
  2 143 121       5.64790970   ~    c_Tech     ~    3.64790970
  2 143 122       5.10830213   ~    c_Tech     ~    3.10830213
  2 143 123       4.56258730   ~    c_Tech     ~    2.56258730
  2 143 124       4.00351458   ~    c_Tech     ~    2.00351458
  2 143 125       3.69452822   ~    c_Tech     ~    1.69452822
  2 142 125       3.40997524   ~    c_Tech     ~    1.40997524
  2 142 126       2.86208657   ~    c_Tech     ~    0.86208657
  2 142 127       2.35897015   ~    c_Tech     ~    0.35897015
  2 141 127       2.08103178   ~    c_Tech     ~    0.08103178
  2 141 128       1.74133475   ~    c_Tech     ~   -0.25866525
  2 141 129       1.19127050   ~    c_Tech     ~   -0.80872950
  2 141 130       0.62750152   ~    c_Tech     ~   -1.37249848
  2 141 131       0.31096108   ~    c_Tech     ~   -1.68903892
  2 140 131       0.10000000   ~    c_Tech     ~   -1.90000000
END period  1

