BEGIN options
  SAVE_FLOWS
END options

BEGIN dimensions
  MAXBOUND  32
END dimensions

BEGIN period  1
  2 114 32     140.00000000
  2 115 33     140.00000000
  2 116 34     140.00000000
  2 117 35     140.00000000
  2 118 35     140.00000000
  2 119 36     140.00000000
  2 119 37     140.00000000
  2 120 38     140.00000000
  2 120 39     140.00000000
  2 120 40     140.00000000
  2 121 41     140.00000000
  2 121 42     140.00000000
  2 122 43     140.00000000
  2 123 44     140.00000000
  2 123 45     140.00000000
  4 113 32     115.00000000
  4 114 33     115.00000000
  4 114 34     115.00000000
  4 115 35     115.00000000
  4 116 36     115.00000000
  4 117 37     115.00000000
  4 118 37     115.00000000
  4 119 37     115.00000000
  4 120 38     115.00000000
  4 120 39     115.00000000
  4 120 40     115.00000000
  4 120 41     115.00000000
  4 120 42     115.00000000
  4 121 40     115.00000000
  4 121 43     115.00000000
  4 121 44     115.00000000
  4 122 45     115.00000000
END period  1

