BEGIN options
  SAVE_FLOWS
END options

BEGIN dimensions
  MAXBOUND  286
END dimensions

BEGIN period  1
  3 101 130      -0.00913759
  3 81 137      -0.00433229
  3 98 117      -0.00120240
  3 97 118      -0.01802905
  3 79 109  -7.36681887E-04
  3 78 114      -0.01063921
  3 94 116      -0.01352007
  3 105 117      -0.00790589
  3 70 133      -0.00495412
  3 94 80      -0.00383454
  3 96 81      -0.01462427
  3 104 89      -0.02368861
  3 90 97      -0.02338258
  3 90 94  -8.87874176E-04
  3 91 85      -0.00760195
  3 94 58      -0.04297939
  3 100 62      -0.00362649
  3 94 42      -0.00353678
  3 63 88      -0.00887373
  3 91 59      -0.00407300
  3 88 135      -0.00839365
  3 68 101      -0.01678393
  3 131 83      -0.00856164
  3 50 115  -4.81988838E-04
  3 104 82  -5.40969051E-04
  3 93 66  -9.51293760E-05
  3 91 61  -1.14155251E-04
  3 105 63      -0.00129316
  3 113 128      -0.00948354
  3 128 136      -0.01234592
  3 121 132      -0.00450289
  3 126 101      -0.00279408
  3 106 118      -0.00665690
  3 113 121      -0.00289422
  3 115 97      -0.00620316
  3 110 89  -2.17846271E-05
  3 118 84      -0.01136771
  3 88 136      -0.00407788
  3 76 142      -0.00881837
  3 95 133      -0.01169032
  3 87 134      -0.00828057
  3 89 140      -0.01047974
  3 79 139      -0.01826113
  3 96 142      -0.00747121
  3 129 133      -0.01079354
  3 126 127      -0.00134434
  3 112 101      -0.00407132
  3 127 115      -0.00789346
  3 120 110      -0.00729154
  3 123 110      -0.00733206
  3 125 112      -0.00828494
  3 127 113      -0.00909358
  3 119 120      -0.00438981
  3 114 110      -0.01084928
  3 124 101  -9.30365297E-04
  3 125 117      -0.01212129
  3 126 103      -0.00822089
  3 105 88      -0.01117596
  3 128 90  -7.82090309E-04
  3 123 78      -0.00677010
  3 126 68      -0.01167057
  3 112 64      -0.01803574
  3 134 72      -0.01236682
  3 128 70      -0.00100285
  3 116 66      -0.01822045
  3 114 67      -0.00106215
  3 101 131      -0.00779344
  3 80 130      -0.00245798
  3 103 122  -9.51293760E-06
  3 83 110  -1.36352106E-04
  3 98 107      -0.01218246
  3 85 104      -0.00358688
  3 90 107  -3.67833587E-06
  3 82 103      -0.00565088
  3 99 114      -0.00133942
  3 64 130      -0.00422130
  3 69 136      -0.00477559
  3 59 126      -0.00433143
  3 70 133      -0.00495294
  3 65 129      -0.01609821
  3 62 134      -0.00599505
  3 59 132      -0.00937288
  3 55 131      -0.01470605
  3 71 107      -0.01688559
  3 69 121      -0.00794930
  3 42 112      -0.00688118
  3 68 108  -3.80517504E-05
  3 62 124      -0.00452353
  3 51 109  -2.16197362E-04
  3 62 99      -0.00150520
  3 85 87      -0.00905410
  3 92 96      -0.00901164
  3 96 97  -1.74530695E-04
  3 102 87      -0.00116920
  3 86 88      -0.01088401
  3 90 97  -4.27416286E-04
  3 88 78      -0.01101376
  3 86 91      -0.01008333
  3 94 56      -0.02730654
  3 94 56      -0.00204871
  3 93 75  -5.06659056E-04
  3 103 64  -3.80517504E-04
  3 94 45      -0.02161574
  3 92 51      -0.01389374
  3 104 38  -1.61244292E-04
  3 70 98      -0.00894882
  3 71 93      -0.00320329
  3 60 93  -3.32952816E-04
  3 62 98      -0.00870687
  3 143 108  -3.54832572E-04
  3 131 122      -0.01708222
  3 116 66      -0.01972707
  3 73 135      -0.00385813
  3 78 109      -0.00271100
  3 82 103      -0.00565088
  3 57 136      -0.00853244
  3 59 126      -0.01112833
  3 60 125      -0.00529097
  3 59 133      -0.00443610
  3 60 125      -0.00511162
  3 63 108      -0.00256355
  3 62 124      -0.00641521
  3 56 108  -7.59069001E-04
  3 96 55      -0.02256938
  3 38 144      -0.00972501
  3 120 101  -3.98592085E-04
  3 124 106  -3.80517504E-04
  3 123 107  -2.37823440E-05
  3 109 89  -2.16894977E-04
  3 57 116  -1.90258752E-04
  3 132 137  -2.02942669E-04
  3 100 47  -5.07356672E-04
  3 83 106  -1.26839168E-04
  3 59 93  -4.75646880E-04
  3 99 63  -7.13470320E-05
  3 103 63  -3.80517504E-04
  3 140 118      -0.00846651
  3 73 127  -5.39066464E-04
  3 38 113  -1.90258752E-04
  3 98 56  -2.06113648E-05
  3 105 52      -0.00153355
  3 108 80  -3.80517504E-04
  3 108 59  -4.28082192E-04
  3 98 34      -0.00108457
  3 101 49  -6.34830036E-04
  3 94 44  -1.18911720E-04
  3 116 90      -0.00107211
  3 104 69      -0.00761035
  3 44 119  -2.28310502E-04
  3 33 121      -0.00194857
  3 103 59  -5.70776256E-04
  3 110 81  -8.87874176E-05
  3 62 96  -5.89548453E-04
  3 60 91  -5.70776256E-04
  3 55 131      -0.00751522
  3 80 131      -0.00294803
  3 131 127      -0.00283584
  3 131 92  -7.51204972E-05
  3 134 72      -0.01119482
  3 38 144      -0.01019980
  3 129 91  -2.99784373E-04
  3 42 112  -1.54268138E-04
  1 78 114      -0.01852448
  1 95 41  -7.87037037E-05
  1 101 68  -9.69748858E-04
  1 143 106      -0.00879287
  1 121 132      -0.00235661
  1 121 132      -0.00945152
  1 121 132      -0.01003656
  1 121 132      -0.00911726
  1 143 106      -0.00560458
  1 142 107      -0.00367526
  1 143 107      -0.01485769
  1 121 132      -0.00625856
  1 128 136      -0.05300685
  1 131 122      -0.00368760
  1 158 84      -0.02064181
  1 146 100      -0.00379665
  1 159 84  -6.92097920E-04
  1 162 77      -0.00790512
  1 153 92  -6.31151700E-04
  1 107 22      -0.00924978
  1 86 142  -2.45846017E-04
  1 96 55      -0.01522726
  1 92 70      -0.00893690
  1 100 57      -0.11600828
  1 94 45      -0.06838499
  1 86 142  -2.05701421E-04
  1 136 133  -2.21968544E-04
  1 93 84  -2.04845256E-04
  1 87 132      -0.00158549
  1 70 123      -0.00253678
  1 76 126  -6.65905632E-04
  1 106 87  -8.68848300E-05
  1 128 126  -3.55149670E-04
  1 100 40  -4.66133942E-04
  1 101 27  -1.85660832E-04
  1 94 53  -1.80745814E-04
  1 94 38  -2.85388128E-04
  1 96 42  -3.10755961E-04
  1 92 43  -6.34195840E-04
  1 97 42  -5.07356672E-04
  1 94 40  -1.90258752E-04
  1 98 42  -4.42351598E-04
  1 96 41  -1.98503298E-04
  1 95 44  -5.67605277E-04
  1 95 44  -1.10984272E-04
  1 95 40  -2.12455606E-04
  1 138 116  -1.38381532E-04
  1 136 127  -1.26839168E-04
  1 135 121  -2.91254439E-04
  1 69 111      -0.00190259
  1 71 115  -7.61035008E-04
  1 73 115  -4.75646880E-05
  1 72 117  -6.34195840E-04
  1 68 106  -1.01471334E-04
  1 70 109  -6.34195840E-04
  1 72 114  -9.51293760E-05
  1 73 117  -1.77574835E-04
  1 66 107  -6.18340944E-04
  1 101 59  -3.80517504E-04
  1 103 58  -3.80517504E-04
  1 104 67  -3.80517504E-04
  1 96 61  -3.80517504E-04
  1 99 65  -3.80517504E-04
  1 100 65  -4.92770167E-04
  1 58 129  -1.90258752E-04
  1 58 128  -2.85388128E-04
  1 55 130  -2.66362253E-04
  1 56 125  -1.14155251E-04
  1 60 122  -1.90258752E-04
  1 62 125  -7.22983257E-04
  1 59 131  -1.26839168E-04
  1 61 130  -2.53678336E-05
  1 59 129  -6.34195840E-04
  1 44 120  -1.90258752E-04
  1 43 120  -2.37823440E-04
  1 108 65  -3.55149670E-04
  1 67 134  -1.20497210E-04
  1 68 140  -1.52207002E-04
  1 67 133  -5.83460173E-04
  1 67 135      -0.00126839
  1 67 136      -0.00126839
  1 67 135  -2.53678336E-04
  1 73 130  -9.51293760E-04
  1 73 129  -3.80517504E-04
  1 76 130  -4.56621005E-04
  1 72 132  -5.77118214E-04
  1 73 132  -3.17097920E-04
  1 105 80  -2.02942669E-04
  1 83 129  -5.07356672E-04
  1 83 127  -1.52207002E-04
  1 83 125  -5.07356672E-04
  1 83 124  -6.34195840E-04
  1 81 123  -2.66362253E-04
  1 84 122  -1.26839168E-04
  1 82 123  -1.01471334E-04
  1 82 131  -1.90258752E-04
  1 84 124  -1.01471334E-04
  1 83 129  -7.48351091E-05
  1 84 124      -0.00122400
  1 77 129  -8.62506342E-04
  1 149 106  -5.70776256E-04
  1 90 79  -1.58548960E-04
  1 79 121  -5.07356672E-04
  1 77 120  -1.58548960E-04
  1 77 118  -1.71232877E-04
  1 132 134      -0.00232024
  1 97 44  -2.85388128E-04
  1 95 44  -4.71841705E-04
  1 84 109  -2.85388128E-04
  1 88 115  -8.16812532E-04
  1 88 99  -2.85388128E-04
  1 100 66  -1.90258752E-04
  1 106 79  -9.51293760E-04
  1 82 126  -5.07356672E-04
  1 82 127  -1.90258752E-04
  1 82 127  -1.21765601E-04
  1 77 127  -7.29325216E-04
  1 96 58      -0.00406028
  1 133 129      -0.01716086
  1 107 25      -0.00532725
  1 129 125      -0.02072073
  1 99 57  -2.18797565E-04
  1 140 114      -0.01106298
  1 107 38  -5.70776256E-04
END period  1

