pcf
* control data
             restart      regularization
       275       522         7      4208         5         0
        12         4              single               point         1         0         0          noobsreref
   2.000000E+01  -3.000000E+00   3.000000E-01   1.000000E-02        -7       999          lamforgive        noderforgive
   1.000000E+01   1.000000E+01   1.000000E-03         0         0
   1.000000E-01         1   1.100000E+00               noaui          nosenreuse        noboundscale
        -1   1.000000E-02         3         3   1.000000E-02         3   0.000000E+00         1  -1.000000E+00
         0         0         0         0             jcosave          verboserec          jcosaveitn          reisaveitn          parsaveitn        noparsaverun
* singular value decomposition
         1
  10000000    1.000000E-06
1
* parameter groups
 kp_pc_inst:0            relative              1.0000000000E-02       0.0  switch                2.0000000000E+00       parabolic             1.0000000000E-05      5.0000000000E-01       smaller              
 kp_q_inst:0             relative              1.0000000000E-02       0.0  switch                2.0000000000E+00       parabolic             1.0000000000E-05      5.0000000000E-01       smaller              
 irr__multiplier         relative              1.0000000000E-02       0.0  switch                2.0000000000E+00       parabolic             1.0000000000E-05      5.0000000000E-01       smaller              
 cond                    relative              1.0000000000E-02       0.0  switch                2.0000000000E+00       parabolic             1.0000000000E-05      5.0000000000E-01       smaller              
 ep__multiplier          relative              1.0000000000E-02       0.0  switch                2.0000000000E+00       parabolic             1.0000000000E-05      5.0000000000E-01       smaller              
 pms__multiplier         relative              1.0000000000E-02       0.0  switch                2.0000000000E+00       parabolic             1.0000000000E-05      5.0000000000E-01       smaller              
 qm__multiplier          relative              1.0000000000E-02       0.0  switch                2.0000000000E+00       parabolic             1.0000000000E-05      5.0000000000E-01       smaller              
* parameter data
           kp_q_inst:0_i:4_j:139   log                    factor                1.0000000000E+00      5.0000000000E-03      3.0000000000E+00       kp_q_inst:0           1.0000000000E+00      0.0000000000E+00      1          
          kp_q_inst:0_i:13_j:139   log                    factor                1.0000000000E+00      5.0000000000E-03      3.0000000000E+00       kp_q_inst:0           1.0000000000E+00      0.0000000000E+00      1          
          kp_q_inst:0_i:22_j:139   log                    factor                1.0000000000E+00      5.0000000000E-03      3.0000000000E+00       kp_q_inst:0           1.0000000000E+00      0.0000000000E+00      1          
          kp_q_inst:0_i:31_j:121   log                    factor                1.0000000000E+00      5.0000000000E-03      3.0000000000E+00       kp_q_inst:0           1.0000000000E+00      0.0000000000E+00      1          
          kp_q_inst:0_i:31_j:130   log                    factor                1.0000000000E+00      5.0000000000E-03      3.0000000000E+00       kp_q_inst:0           1.0000000000E+00      0.0000000000E+00      1          
          kp_q_inst:0_i:31_j:139   log                    factor                1.0000000000E+00      5.0000000000E-03      3.0000000000E+00       kp_q_inst:0           1.0000000000E+00      0.0000000000E+00      1          
          kp_q_inst:0_i:40_j:112   log                    factor                1.0000000000E+00      5.0000000000E-03      3.0000000000E+00       kp_q_inst:0           1.0000000000E+00      0.0000000000E+00      1          
          kp_q_inst:0_i:40_j:121   log                    factor                1.0000000000E+00      5.0000000000E-03      3.0000000000E+00       kp_q_inst:0           1.0000000000E+00      0.0000000000E+00      1          
          kp_q_inst:0_i:40_j:130   log                    factor                1.0000000000E+00      5.0000000000E-03      3.0000000000E+00       kp_q_inst:0           1.0000000000E+00      0.0000000000E+00      1          
          kp_q_inst:0_i:40_j:139   log                    factor                1.0000000000E+00      5.0000000000E-03      3.0000000000E+00       kp_q_inst:0           1.0000000000E+00      0.0000000000E+00      1          
           kp_q_inst:0_i:49_j:94   log                    factor                1.0000000000E+00      5.0000000000E-03      3.0000000000E+00       kp_q_inst:0           1.0000000000E+00      0.0000000000E+00      1          
          kp_q_inst:0_i:49_j:103   log                    factor                1.0000000000E+00      5.0000000000E-03      3.0000000000E+00       kp_q_inst:0           1.0000000000E+00      0.0000000000E+00      1          
          kp_q_inst:0_i:49_j:112   log                    factor                1.0000000000E+00      5.0000000000E-03      3.0000000000E+00       kp_q_inst:0           1.0000000000E+00      0.0000000000E+00      1          
          kp_q_inst:0_i:49_j:121   log                    factor                1.0000000000E+00      5.0000000000E-03      3.0000000000E+00       kp_q_inst:0           1.0000000000E+00      0.0000000000E+00      1          
          kp_q_inst:0_i:49_j:130   log                    factor                1.0000000000E+00      5.0000000000E-03      3.0000000000E+00       kp_q_inst:0           1.0000000000E+00      0.0000000000E+00      1          
          kp_q_inst:0_i:49_j:139   log                    factor                1.0000000000E+00      5.0000000000E-03      3.0000000000E+00       kp_q_inst:0           1.0000000000E+00      0.0000000000E+00      1          
           kp_q_inst:0_i:58_j:76   log                    factor                1.0000000000E+00      5.0000000000E-03      3.0000000000E+00       kp_q_inst:0           1.0000000000E+00      0.0000000000E+00      1          
           kp_q_inst:0_i:58_j:85   log                    factor                1.0000000000E+00      5.0000000000E-03      3.0000000000E+00       kp_q_inst:0           1.0000000000E+00      0.0000000000E+00      1          
           kp_q_inst:0_i:58_j:94   log                    factor                1.0000000000E+00      5.0000000000E-03      3.0000000000E+00       kp_q_inst:0           1.0000000000E+00      0.0000000000E+00      1          
          kp_q_inst:0_i:58_j:103   log                    factor                1.0000000000E+00      5.0000000000E-03      3.0000000000E+00       kp_q_inst:0           1.0000000000E+00      0.0000000000E+00      1          
          kp_q_inst:0_i:58_j:112   log                    factor                1.0000000000E+00      5.0000000000E-03      3.0000000000E+00       kp_q_inst:0           1.0000000000E+00      0.0000000000E+00      1          
          kp_q_inst:0_i:58_j:121   log                    factor                1.0000000000E+00      5.0000000000E-03      3.0000000000E+00       kp_q_inst:0           1.0000000000E+00      0.0000000000E+00      1          
          kp_q_inst:0_i:58_j:130   log                    factor                1.0000000000E+00      5.0000000000E-03      3.0000000000E+00       kp_q_inst:0           1.0000000000E+00      0.0000000000E+00      1          
          kp_q_inst:0_i:58_j:139   log                    factor                1.0000000000E+00      5.0000000000E-03      3.0000000000E+00       kp_q_inst:0           1.0000000000E+00      0.0000000000E+00      1          
           kp_q_inst:0_i:67_j:76   log                    factor                1.0000000000E+00      5.0000000000E-03      3.0000000000E+00       kp_q_inst:0           1.0000000000E+00      0.0000000000E+00      1          
           kp_q_inst:0_i:67_j:85   log                    factor                1.0000000000E+00      5.0000000000E-03      3.0000000000E+00       kp_q_inst:0           1.0000000000E+00      0.0000000000E+00      1          
           kp_q_inst:0_i:67_j:94   log                    factor                1.0000000000E+00      5.0000000000E-03      3.0000000000E+00       kp_q_inst:0           1.0000000000E+00      0.0000000000E+00      1          
          kp_q_inst:0_i:67_j:103   log                    factor                1.0000000000E+00      5.0000000000E-03      3.0000000000E+00       kp_q_inst:0           1.0000000000E+00      0.0000000000E+00      1          
          kp_q_inst:0_i:67_j:112   log                    factor                1.0000000000E+00      5.0000000000E-03      3.0000000000E+00       kp_q_inst:0           1.0000000000E+00      0.0000000000E+00      1          
          kp_q_inst:0_i:67_j:121   log                    factor                1.0000000000E+00      5.0000000000E-03      3.0000000000E+00       kp_q_inst:0           1.0000000000E+00      0.0000000000E+00      1          
          kp_q_inst:0_i:67_j:130   log                    factor                1.0000000000E+00      5.0000000000E-03      3.0000000000E+00       kp_q_inst:0           1.0000000000E+00      0.0000000000E+00      1          
          kp_q_inst:0_i:67_j:139   log                    factor                1.0000000000E+00      5.0000000000E-03      3.0000000000E+00       kp_q_inst:0           1.0000000000E+00      0.0000000000E+00      1          
           kp_q_inst:0_i:76_j:85   log                    factor                1.0000000000E+00      5.0000000000E-03      3.0000000000E+00       kp_q_inst:0           1.0000000000E+00      0.0000000000E+00      1          
           kp_q_inst:0_i:76_j:94   log                    factor                1.0000000000E+00      5.0000000000E-03      3.0000000000E+00       kp_q_inst:0           1.0000000000E+00      0.0000000000E+00      1          
          kp_q_inst:0_i:76_j:103   log                    factor                1.0000000000E+00      5.0000000000E-03      3.0000000000E+00       kp_q_inst:0           1.0000000000E+00      0.0000000000E+00      1          
          kp_q_inst:0_i:76_j:112   log                    factor                1.0000000000E+00      5.0000000000E-03      3.0000000000E+00       kp_q_inst:0           1.0000000000E+00      0.0000000000E+00      1          
          kp_q_inst:0_i:76_j:121   log                    factor                1.0000000000E+00      5.0000000000E-03      3.0000000000E+00       kp_q_inst:0           1.0000000000E+00      0.0000000000E+00      1          
          kp_q_inst:0_i:76_j:130   log                    factor                1.0000000000E+00      5.0000000000E-03      3.0000000000E+00       kp_q_inst:0           1.0000000000E+00      0.0000000000E+00      1          
          kp_q_inst:0_i:76_j:139   log                    factor                1.0000000000E+00      5.0000000000E-03      3.0000000000E+00       kp_q_inst:0           1.0000000000E+00      0.0000000000E+00      1          
           kp_q_inst:0_i:85_j:94   log                    factor                1.0000000000E+00      5.0000000000E-03      3.0000000000E+00       kp_q_inst:0           1.0000000000E+00      0.0000000000E+00      1          
          kp_q_inst:0_i:85_j:103   log                    factor                1.0000000000E+00      5.0000000000E-03      3.0000000000E+00       kp_q_inst:0           1.0000000000E+00      0.0000000000E+00      1          
          kp_q_inst:0_i:85_j:112   log                    factor                1.0000000000E+00      5.0000000000E-03      3.0000000000E+00       kp_q_inst:0           1.0000000000E+00      0.0000000000E+00      1          
          kp_q_inst:0_i:85_j:121   log                    factor                1.0000000000E+00      5.0000000000E-03      3.0000000000E+00       kp_q_inst:0           1.0000000000E+00      0.0000000000E+00      1          
          kp_q_inst:0_i:85_j:130   log                    factor                1.0000000000E+00      5.0000000000E-03      3.0000000000E+00       kp_q_inst:0           1.0000000000E+00      0.0000000000E+00      1          
          kp_q_inst:0_i:85_j:139   log                    factor                1.0000000000E+00      5.0000000000E-03      3.0000000000E+00       kp_q_inst:0           1.0000000000E+00      0.0000000000E+00      1          
           kp_q_inst:0_i:94_j:85   log                    factor                1.0000000000E+00      5.0000000000E-03      3.0000000000E+00       kp_q_inst:0           1.0000000000E+00      0.0000000000E+00      1          
           kp_q_inst:0_i:94_j:94   log                    factor                1.0000000000E+00      5.0000000000E-03      3.0000000000E+00       kp_q_inst:0           1.0000000000E+00      0.0000000000E+00      1          
          kp_q_inst:0_i:94_j:103   log                    factor                1.0000000000E+00      5.0000000000E-03      3.0000000000E+00       kp_q_inst:0           1.0000000000E+00      0.0000000000E+00      1          
          kp_q_inst:0_i:94_j:112   log                    factor                1.0000000000E+00      5.0000000000E-03      3.0000000000E+00       kp_q_inst:0           1.0000000000E+00      0.0000000000E+00      1          
          kp_q_inst:0_i:94_j:121   log                    factor                1.0000000000E+00      5.0000000000E-03      3.0000000000E+00       kp_q_inst:0           1.0000000000E+00      0.0000000000E+00      1          
          kp_q_inst:0_i:94_j:130   log                    factor                1.0000000000E+00      5.0000000000E-03      3.0000000000E+00       kp_q_inst:0           1.0000000000E+00      0.0000000000E+00      1          
          kp_q_inst:0_i:94_j:139   log                    factor                1.0000000000E+00      5.0000000000E-03      3.0000000000E+00       kp_q_inst:0           1.0000000000E+00      0.0000000000E+00      1          
          kp_q_inst:0_i:103_j:22   log                    factor                1.0000000000E+00      5.0000000000E-03      3.0000000000E+00       kp_q_inst:0           1.0000000000E+00      0.0000000000E+00      1          
          kp_q_inst:0_i:103_j:31   log                    factor                1.0000000000E+00      5.0000000000E-03      3.0000000000E+00       kp_q_inst:0           1.0000000000E+00      0.0000000000E+00      1          
          kp_q_inst:0_i:103_j:40   log                    factor                1.0000000000E+00      5.0000000000E-03      3.0000000000E+00       kp_q_inst:0           1.0000000000E+00      0.0000000000E+00      1          
          kp_q_inst:0_i:103_j:49   log                    factor                1.0000000000E+00      5.0000000000E-03      3.0000000000E+00       kp_q_inst:0           1.0000000000E+00      0.0000000000E+00      1          
          kp_q_inst:0_i:103_j:58   log                    factor                1.0000000000E+00      5.0000000000E-03      3.0000000000E+00       kp_q_inst:0           1.0000000000E+00      0.0000000000E+00      1          
          kp_q_inst:0_i:103_j:67   log                    factor                1.0000000000E+00      5.0000000000E-03      3.0000000000E+00       kp_q_inst:0           1.0000000000E+00      0.0000000000E+00      1          
          kp_q_inst:0_i:103_j:76   log                    factor                1.0000000000E+00      5.0000000000E-03      3.0000000000E+00       kp_q_inst:0           1.0000000000E+00      0.0000000000E+00      1          
          kp_q_inst:0_i:103_j:85   log                    factor                1.0000000000E+00      5.0000000000E-03      3.0000000000E+00       kp_q_inst:0           1.0000000000E+00      0.0000000000E+00      1          
         kp_q_inst:0_i:103_j:130   log                    factor                1.0000000000E+00      5.0000000000E-03      3.0000000000E+00       kp_q_inst:0           1.0000000000E+00      0.0000000000E+00      1          
         kp_q_inst:0_i:103_j:139   log                    factor                1.0000000000E+00      5.0000000000E-03      3.0000000000E+00       kp_q_inst:0           1.0000000000E+00      0.0000000000E+00      1          
           kp_q_inst:0_i:112_j:4   log                    factor                1.0000000000E+00      5.0000000000E-03      3.0000000000E+00       kp_q_inst:0           1.0000000000E+00      0.0000000000E+00      1          
          kp_q_inst:0_i:112_j:13   log                    factor                1.0000000000E+00      5.0000000000E-03      3.0000000000E+00       kp_q_inst:0           1.0000000000E+00      0.0000000000E+00      1          
          kp_q_inst:0_i:112_j:22   log                    factor                1.0000000000E+00      5.0000000000E-03      3.0000000000E+00       kp_q_inst:0           1.0000000000E+00      0.0000000000E+00      1          
          kp_q_inst:0_i:112_j:31   log                    factor                1.0000000000E+00      5.0000000000E-03      3.0000000000E+00       kp_q_inst:0           1.0000000000E+00      0.0000000000E+00      1          
          kp_q_inst:0_i:112_j:40   log                    factor                1.0000000000E+00      5.0000000000E-03      3.0000000000E+00       kp_q_inst:0           1.0000000000E+00      0.0000000000E+00      1          
          kp_q_inst:0_i:112_j:49   log                    factor                1.0000000000E+00      5.0000000000E-03      3.0000000000E+00       kp_q_inst:0           1.0000000000E+00      0.0000000000E+00      1          
          kp_q_inst:0_i:112_j:58   log                    factor                1.0000000000E+00      5.0000000000E-03      3.0000000000E+00       kp_q_inst:0           1.0000000000E+00      0.0000000000E+00      1          
          kp_q_inst:0_i:112_j:67   log                    factor                1.0000000000E+00      5.0000000000E-03      3.0000000000E+00       kp_q_inst:0           1.0000000000E+00      0.0000000000E+00      1          
          kp_q_inst:0_i:112_j:76   log                    factor                1.0000000000E+00      5.0000000000E-03      3.0000000000E+00       kp_q_inst:0           1.0000000000E+00      0.0000000000E+00      1          
          kp_q_inst:0_i:112_j:94   log                    factor                1.0000000000E+00      5.0000000000E-03      3.0000000000E+00       kp_q_inst:0           1.0000000000E+00      0.0000000000E+00      1          
         kp_q_inst:0_i:112_j:103   log                    factor                1.0000000000E+00      5.0000000000E-03      3.0000000000E+00       kp_q_inst:0           1.0000000000E+00      0.0000000000E+00      1          
         kp_q_inst:0_i:112_j:112   log                    factor                1.0000000000E+00      5.0000000000E-03      3.0000000000E+00       kp_q_inst:0           1.0000000000E+00      0.0000000000E+00      1          
         kp_q_inst:0_i:112_j:121   log                    factor                1.0000000000E+00      5.0000000000E-03      3.0000000000E+00       kp_q_inst:0           1.0000000000E+00      0.0000000000E+00      1          
         kp_q_inst:0_i:112_j:130   log                    factor                1.0000000000E+00      5.0000000000E-03      3.0000000000E+00       kp_q_inst:0           1.0000000000E+00      0.0000000000E+00      1          
         kp_q_inst:0_i:112_j:139   log                    factor                1.0000000000E+00      5.0000000000E-03      3.0000000000E+00       kp_q_inst:0           1.0000000000E+00      0.0000000000E+00      1          
          kp_q_inst:0_i:121_j:49   log                    factor                1.0000000000E+00      5.0000000000E-03      3.0000000000E+00       kp_q_inst:0           1.0000000000E+00      0.0000000000E+00      1          
          kp_q_inst:0_i:121_j:58   log                    factor                1.0000000000E+00      5.0000000000E-03      3.0000000000E+00       kp_q_inst:0           1.0000000000E+00      0.0000000000E+00      1          
          kp_q_inst:0_i:121_j:85   log                    factor                1.0000000000E+00      5.0000000000E-03      3.0000000000E+00       kp_q_inst:0           1.0000000000E+00      0.0000000000E+00      1          
         kp_q_inst:0_i:121_j:103   log                    factor                1.0000000000E+00      5.0000000000E-03      3.0000000000E+00       kp_q_inst:0           1.0000000000E+00      0.0000000000E+00      1          
         kp_q_inst:0_i:121_j:112   log                    factor                1.0000000000E+00      5.0000000000E-03      3.0000000000E+00       kp_q_inst:0           1.0000000000E+00      0.0000000000E+00      1          
         kp_q_inst:0_i:121_j:121   log                    factor                1.0000000000E+00      5.0000000000E-03      3.0000000000E+00       kp_q_inst:0           1.0000000000E+00      0.0000000000E+00      1          
         kp_q_inst:0_i:121_j:130   log                    factor                1.0000000000E+00      5.0000000000E-03      3.0000000000E+00       kp_q_inst:0           1.0000000000E+00      0.0000000000E+00      1          
         kp_q_inst:0_i:121_j:139   log                    factor                1.0000000000E+00      5.0000000000E-03      3.0000000000E+00       kp_q_inst:0           1.0000000000E+00      0.0000000000E+00      1          
          kp_q_inst:0_i:130_j:67   log                    factor                1.0000000000E+00      5.0000000000E-03      3.0000000000E+00       kp_q_inst:0           1.0000000000E+00      0.0000000000E+00      1          
         kp_q_inst:0_i:130_j:103   log                    factor                1.0000000000E+00      5.0000000000E-03      3.0000000000E+00       kp_q_inst:0           1.0000000000E+00      0.0000000000E+00      1          
         kp_q_inst:0_i:130_j:112   log                    factor                1.0000000000E+00      5.0000000000E-03      3.0000000000E+00       kp_q_inst:0           1.0000000000E+00      0.0000000000E+00      1          
         kp_q_inst:0_i:130_j:130   log                    factor                1.0000000000E+00      5.0000000000E-03      3.0000000000E+00       kp_q_inst:0           1.0000000000E+00      0.0000000000E+00      1          
         kp_q_inst:0_i:130_j:139   log                    factor                1.0000000000E+00      5.0000000000E-03      3.0000000000E+00       kp_q_inst:0           1.0000000000E+00      0.0000000000E+00      1          
         kp_q_inst:0_i:139_j:112   log                    factor                1.0000000000E+00      5.0000000000E-03      3.0000000000E+00       kp_q_inst:0           1.0000000000E+00      0.0000000000E+00      1          
         kp_q_inst:0_i:139_j:121   log                    factor                1.0000000000E+00      5.0000000000E-03      3.0000000000E+00       kp_q_inst:0           1.0000000000E+00      0.0000000000E+00      1          
         kp_q_inst:0_i:139_j:130   log                    factor                1.0000000000E+00      5.0000000000E-03      3.0000000000E+00       kp_q_inst:0           1.0000000000E+00      0.0000000000E+00      1          
         kp_q_inst:0_i:139_j:139   log                    factor                1.0000000000E+00      5.0000000000E-03      3.0000000000E+00       kp_q_inst:0           1.0000000000E+00      0.0000000000E+00      1          
          kp_q_inst:0_i:148_j:94   log                    factor                1.0000000000E+00      5.0000000000E-03      3.0000000000E+00       kp_q_inst:0           1.0000000000E+00      0.0000000000E+00      1          
         kp_q_inst:0_i:148_j:103   log                    factor                1.0000000000E+00      5.0000000000E-03      3.0000000000E+00       kp_q_inst:0           1.0000000000E+00      0.0000000000E+00      1          
         kp_q_inst:0_i:148_j:112   log                    factor                1.0000000000E+00      5.0000000000E-03      3.0000000000E+00       kp_q_inst:0           1.0000000000E+00      0.0000000000E+00      1          
         kp_q_inst:0_i:148_j:121   log                    factor                1.0000000000E+00      5.0000000000E-03      3.0000000000E+00       kp_q_inst:0           1.0000000000E+00      0.0000000000E+00      1          
         kp_q_inst:0_i:148_j:130   log                    factor                1.0000000000E+00      5.0000000000E-03      3.0000000000E+00       kp_q_inst:0           1.0000000000E+00      0.0000000000E+00      1          
         kp_q_inst:0_i:148_j:139   log                    factor                1.0000000000E+00      5.0000000000E-03      3.0000000000E+00       kp_q_inst:0           1.0000000000E+00      0.0000000000E+00      1          
          kp_q_inst:0_i:157_j:76   log                    factor                1.0000000000E+00      5.0000000000E-03      3.0000000000E+00       kp_q_inst:0           1.0000000000E+00      0.0000000000E+00      1          
          kp_q_inst:0_i:157_j:85   log                    factor                1.0000000000E+00      5.0000000000E-03      3.0000000000E+00       kp_q_inst:0           1.0000000000E+00      0.0000000000E+00      1          
          kp_q_inst:0_i:157_j:94   log                    factor                1.0000000000E+00      5.0000000000E-03      3.0000000000E+00       kp_q_inst:0           1.0000000000E+00      0.0000000000E+00      1          
         kp_q_inst:0_i:157_j:103   log                    factor                1.0000000000E+00      5.0000000000E-03      3.0000000000E+00       kp_q_inst:0           1.0000000000E+00      0.0000000000E+00      1          
         kp_q_inst:0_i:157_j:112   log                    factor                1.0000000000E+00      5.0000000000E-03      3.0000000000E+00       kp_q_inst:0           1.0000000000E+00      0.0000000000E+00      1          
         kp_q_inst:0_i:157_j:121   log                    factor                1.0000000000E+00      5.0000000000E-03      3.0000000000E+00       kp_q_inst:0           1.0000000000E+00      0.0000000000E+00      1          
         kp_q_inst:0_i:157_j:130   log                    factor                1.0000000000E+00      5.0000000000E-03      3.0000000000E+00       kp_q_inst:0           1.0000000000E+00      0.0000000000E+00      1          
         kp_q_inst:0_i:157_j:139   log                    factor                1.0000000000E+00      5.0000000000E-03      3.0000000000E+00       kp_q_inst:0           1.0000000000E+00      0.0000000000E+00      1          
          kp_q_inst:0_i:166_j:58   log                    factor                1.0000000000E+00      5.0000000000E-03      3.0000000000E+00       kp_q_inst:0           1.0000000000E+00      0.0000000000E+00      1          
          kp_q_inst:0_i:166_j:67   log                    factor                1.0000000000E+00      5.0000000000E-03      3.0000000000E+00       kp_q_inst:0           1.0000000000E+00      0.0000000000E+00      1          
         kp_q_inst:0_i:166_j:103   log                    factor                1.0000000000E+00      5.0000000000E-03      3.0000000000E+00       kp_q_inst:0           1.0000000000E+00      0.0000000000E+00      1          
          kp_q_inst:0_i:175_j:49   log                    factor                1.0000000000E+00      5.0000000000E-03      3.0000000000E+00       kp_q_inst:0           1.0000000000E+00      0.0000000000E+00      1          
          kp_q_inst:0_i:175_j:58   log                    factor                1.0000000000E+00      5.0000000000E-03      3.0000000000E+00       kp_q_inst:0           1.0000000000E+00      0.0000000000E+00      1          
            c_agly                 log                    factor                5.0000000000E-03      1.0000000000E-03      1.0000000000E-02       cond                  1.0000000000E+00      0.0000000000E+00      1          
            c_Bol                  log                    factor                5.0000000000E-03      1.0000000000E-03      1.0000000000E-02       cond                  1.0000000000E+00      0.0000000000E+00      1          
            c_Cant                 log                    factor                5.0000000000E-03      1.0000000000E-03      1.0000000000E-02       cond                  1.0000000000E+00      0.0000000000E+00      1          
            c_Rea                  log                    factor                5.0000000000E-03      1.0000000000E-03      1.0000000000E-02       cond                  1.0000000000E+00      0.0000000000E+00      1          
            c_Tech                 log                    factor                5.0000000000E-03      1.0000000000E-03      1.0000000000E-02       cond                  1.0000000000E+00      0.0000000000E+00      1          
            c_Tet                  log                    factor                5.0000000000E-03      1.0000000000E-03      1.0000000000E-02       cond                  1.0000000000E+00      0.0000000000E+00      1          
          kp_pc_inst:0_i:4_j:139   log                    factor                1.0000000000E+00      5.0000000000E-02      5.0000000000E+01       kp_pc_inst:0          1.0000000000E+00      0.0000000000E+00      1          
         kp_pc_inst:0_i:13_j:139   log                    factor                1.0000000000E+00      5.0000000000E-02      5.0000000000E+01       kp_pc_inst:0          1.0000000000E+00      0.0000000000E+00      1          
         kp_pc_inst:0_i:22_j:130   log                    factor                1.0000000000E+00      5.0000000000E-02      5.0000000000E+01       kp_pc_inst:0          1.0000000000E+00      0.0000000000E+00      1          