BEGIN options
  BUDGET  FILEOUT  3D_cartes.cbc
  HEAD  FILEOUT  3D_cartes.hds
END options

BEGIN period  1
  SAVE  HEAD  LAST
  SAVE  BUDGET  LAST
  PRINT  BUDGET  ALL
END period  1

