BEGIN options
  SAVE_FLOWS
END options

BEGIN dimensions
  MAXBOUND  86
END dimensions

BEGIN period  1
  2 69 73      25.60000000       0.00300000      24.10000000
  2 69 74      25.13184836       0.00300000      23.63184836
  2 69 75      24.62000000       0.00300000      23.12000000
  2 70 75      22.40942986       0.00300000      20.90942986
  2 70 76      20.37000000       0.00300000      18.87000000
  2 71 76      20.19417009       0.00300000      18.69417009
  2 72 76      20.07468719       0.00300000      18.57468719
  2 72 77      19.97200214       0.00300000      18.47200214
  2 73 77      19.86270343       0.00300000      18.36270343
  2 73 78      19.74464020       0.00300000      18.24464020
  2 73 79      19.66099762       0.00300000      18.16099762
  2 72 79      19.56856205       0.00300000      18.06856205
  2 72 80      19.40688763       0.00300000      17.90688763
  2 71 80      19.30916071       0.00300000      17.80916071
  2 71 81      19.20000000       0.00300000      17.70000000
  2 71 82      19.01550524       0.00300000      17.51550524
  2 72 82      18.89751564       0.00300000      17.39751564
  2 72 83      18.75615061       0.00300000      17.25615061
  2 73 83      18.60844022       0.00300000      17.10844022
  2 73 84      18.45662918       0.00300000      16.95662918
  2 72 84      18.34752214       0.00300000      16.84752214
  2 72 85      18.22570205       0.00300000      16.72570205
  2 72 86      18.00000000       0.00300000      16.50000000
  2 72 87      17.36334309       0.00300000      15.86334309
  2 72 88      16.72645036       0.00300000      15.22645036
  2 72 89      16.08867313       0.00300000      14.58867313
  2 72 90      15.45879481       0.00300000      13.95879481
  2 72 91      14.83066660       0.00300000      13.33066660
  2 72 92      14.35040858       0.00300000      12.85040858
  2 73 92      14.00000000       0.00300000      12.50000000
  2 73 93      13.18697347       0.00300000      11.68697347
  2 73 94      12.34100773       0.00300000      10.84100773
  2 74 94      11.63000000       0.00300000      10.13000000
  2 74 95      11.42213745       0.00300000       9.92213745
  2 75 95      11.26655586       0.00300000       9.76655586
  2 75 94      11.08414506       0.00300000       9.58414506
  2 76 94      10.96618866       0.00300000       9.46618866
  2 76 95      10.70228804       0.00300000       9.20228804
  2 76 96      10.45030147       0.00300000       8.95030147
  2 77 96      10.26386876       0.00300000       8.76386876
  2 77 97       9.91038714       0.00300000       8.41038714
  2 77 98       9.53666458       0.00300000       8.03666458
  2 77 99       9.16510717       0.00300000       7.66510717
  2 77 100       8.80000000       0.00300000       7.30000000
  2 77 101       8.53185193       0.00300000       7.03185193
  2 78 101       8.24626416       0.00300000       6.74626416
  2 78 102       7.98206670       0.00300000       6.48206670
  2 79 102       7.70292619       0.00300000       6.20292619
  2 79 103       7.35438191       0.00300000       5.85438191
  2 80 103       7.13934847       0.00300000       5.63934847
  2 80 104       6.82301221       0.00300000       5.32301221
  2 80 105       6.40746456       0.00300000       4.90746456
  2 80 106       6.00000000       0.00300000       4.50000000
  2 80 107       5.61644206       0.00300000       4.11644206
  2 80 108       5.22387440       0.00300000       3.72387440
  2 80 109       4.96441691       0.00300000       3.46441691
  2 79 109       4.69675423       0.00300000       3.19675423
  2 79 110       4.38000000       0.00300000       2.88000000
  2 78 110       4.18608434       0.00300000       2.68608434
  2 78 111       3.89130893       0.00300000       2.39130893
  2 78 112       3.69783749       0.00300000       2.19783749
  2 77 112       3.51020944       0.00300000       2.01020944
  2 77 113       3.17901700       0.00300000       1.67901700
  2 76 113       2.99379881       0.00300000       1.49379881
  2 76 114       2.76943601       0.00300000       1.26943601
  2 76 115       2.41767692       0.00300000       0.91767692
  2 76 116       2.17045438       0.00300000       0.67045438
  2 75 116       2.00378449       0.00300000       0.50378449
  2 75 117       1.74845398       0.00300000       0.24845398
  2 75 118       1.40954421       0.00300000      -0.09045579
  2 75 119       1.09000000       0.00300000      -0.41000000
  2 74 119       1.04463112       0.00300000      -0.45536888
  2 74 120       0.99335994       0.00300000      -0.50664006
  2 74 121       0.90110056       0.00300000      -0.59889944
  2 74 122       0.83211018       0.00300000      -0.66788982
  2 73 122       0.78670227       0.00300000      -0.71329773
  2 73 123       0.71919446       0.00300000      -0.78080554
  2 73 124       0.63205158       0.00300000      -0.86794842
  2 73 125       0.54596037       0.00300000      -0.95403963
  2 73 126       0.46591116       0.00300000      -1.03408884
  2 72 126       0.40209047       0.00300000      -1.09790953
  2 72 127       0.35050686       0.00300000      -1.14949314
  2 71 127       0.27776848       0.00300000      -1.22223152
  2 71 128       0.22222786       0.00300000      -1.27777214
  2 70 128       0.17327348       0.00300000      -1.32672652
  2 70 129       0.10000000       0.00300000      -1.40000000
END period  1

