BEGIN options
  SAVE_FLOWS
END options

BEGIN dimensions
  MAXBOUND  6702
END dimensions

BEGIN period  1
  4 42 106  -1.47903383E-09
  4 43 104  -1.47903383E-09
  4 43 105  -1.47903383E-09
  4 43 106  -1.47903383E-09
  2 44 102  -2.07989111E-09
  4 44 102  -1.47903377E-10
  4 44 103  -1.47903377E-10
  4 44 104  -1.47903383E-09
  4 44 105  -1.47903377E-10
  2 44 106  -2.07989111E-09
  4 44 106  -1.47903377E-10
  2 45 101  -2.07989111E-09
  4 45 101  -1.47903377E-10
  2 45 102  -2.07989111E-09
  4 45 102  -1.47903377E-10
  2 45 103  -2.07989111E-09
  4 45 103  -1.47903377E-10
  2 45 104  -2.07989111E-09
  4 45 104  -1.47903377E-10
  2 45 105  -2.07989111E-09
  4 45 105  -1.47903377E-10
  2 45 106  -2.07989111E-09
  4 45 106  -1.47903377E-10
  2 45 107  -2.07989111E-09
  4 45 107  -1.47903377E-10
  2 46 99  -2.07989111E-09
  4 46 99  -1.47903377E-10
  2 46 100  -2.07989111E-09
  4 46 100  -1.47903377E-10
  2 46 101  -2.07989111E-09
  4 46 101  -1.47903377E-10
  2 46 102  -2.07989111E-09
  4 46 102  -1.47903377E-10
  2 46 103  -2.07989111E-09
  4 46 103  -1.47903377E-10
  2 46 104  -2.07989111E-09
  4 46 104  -1.47903377E-10
  2 46 105  -2.07989111E-09
  4 46 105  -1.47903377E-10
  2 46 106  -2.07989111E-09
  4 46 106  -1.47903377E-10
  2 46 107  -2.07989111E-09
  4 46 107  -1.47903377E-10
  2 47 98  -2.07989111E-09
  4 47 98  -1.47903377E-10
  2 47 99  -2.07989111E-09
  4 47 99  -1.47903377E-10
  2 47 100  -2.07989111E-09
  4 47 100  -1.47903377E-10
  2 47 101  -2.07989111E-09
  4 47 101  -1.47903377E-10
  2 47 102  -2.07989111E-09
  4 47 102  -1.47903377E-10
  2 47 103  -2.07989111E-09
  4 47 103  -1.47903377E-10
  2 47 104  -2.07989111E-09
  4 47 104  -1.47903377E-10
  2 47 105  -2.07989111E-09
  4 47 105  -1.47903377E-10
  2 47 106  -2.07989111E-09
  4 47 106  -1.47903377E-10
  2 47 107  -2.07989111E-09
  4 47 107  -1.47903377E-10
  2 48 97  -2.07989111E-09
  4 48 97  -1.47903377E-10
  2 48 98  -2.07989111E-09
  4 48 98  -1.47903377E-10
  2 48 99  -2.07989111E-09
  4 48 99  -1.47903377E-10
  2 48 100  -2.07989111E-09
  4 48 100  -1.47903377E-10
  2 48 101  -2.07989111E-09
  4 48 101  -1.47903377E-10
  2 48 102  -2.07989111E-09
  4 48 102  -1.47903377E-10
  2 48 103  -2.07989111E-09
  4 48 103  -1.47903377E-10
  2 48 104  -2.07989111E-09
  4 48 104  -1.47903377E-10
  2 48 105  -2.07989111E-09
  4 48 105  -1.47903377E-10
  2 48 106  -2.07989111E-09
  4 48 106  -1.47903377E-10
  2 48 107  -2.07989111E-09
  4 48 107  -1.47903377E-10
  2 49 96  -2.07989111E-09
  4 49 96  -1.47903377E-10
  2 49 97  -2.07989111E-09
  4 49 97  -1.47903377E-10
  2 49 98  -2.07989111E-09
  4 49 98  -1.47903377E-10
  2 49 99  -2.07989111E-09
  4 49 99  -1.47903377E-10
  2 49 100  -2.07989111E-09
  4 49 100  -1.47903377E-10
  2 49 101  -2.07989111E-09
  4 49 101  -1.47903377E-10
  2 49 102  -2.07989111E-09
  4 49 102  -1.47903377E-10
  2 49 103  -2.07989111E-09
  4 49 103  -1.47903377E-10
  2 49 104  -2.07989111E-09
  4 49 104  -1.47903377E-10
  2 49 105  -2.07989111E-09
  4 49 105  -1.47903377E-10
  2 49 106  -2.07989111E-09
  4 49 106  -1.47903377E-10
  2 49 107  -2.07989111E-09
  4 49 107  -1.47903377E-10
  2 50 95  -2.07989111E-09
  2 50 96  -2.07989111E-09
  4 50 96  -1.47903377E-10
  2 50 97  -2.07989111E-09
  4 50 97  -1.47903377E-10
  2 50 98  -2.07989111E-09
  4 50 98  -1.47903377E-10
  2 50 99  -2.07989111E-09
  4 50 99  -1.47903377E-10
  2 50 100  -2.07989111E-09
  4 50 100  -1.47903377E-10
  2 50 101  -2.07989111E-09
  4 50 101  -1.47903377E-10
  2 50 102  -2.07989111E-09
  4 50 102  -1.47903377E-10
  2 50 103  -2.07989111E-09
  4 50 103  -1.47903377E-10
  2 50 104  -2.07989111E-09
  4 50 104  -1.47903377E-10
  2 50 105  -2.07989111E-09
  4 50 105  -1.47903377E-10
  2 50 106  -2.07989111E-09
  4 50 106  -1.47903377E-10
  2 50 107  -2.07989111E-09
  4 50 107  -1.47903377E-10
  2 51 95  -2.07989111E-09
  4 51 95  -1.47903377E-10
  2 51 96  -2.07989111E-09
  4 51 96  -1.47903377E-10
  2 51 97  -2.07989111E-09
  4 51 97  -1.47903377E-10
  2 51 98  -2.07989111E-09
  4 51 98  -1.47903377E-10
  2 51 99  -2.07989111E-09
  4 51 99  -1.47903377E-10
  2 51 100  -2.07989111E-09
  4 51 100  -1.47903377E-10
  2 51 101  -2.07989111E-09
  4 51 101  -1.47903377E-10
  2 51 102  -2.07989111E-09
  4 51 102  -1.47903377E-10
  2 51 103  -2.07989111E-09
  4 51 103  -1.47903377E-10
  2 51 104  -2.07989111E-09
  4 51 104  -1.47903377E-10
  2 51 105  -2.07989111E-09
  4 51 105  -1.47903377E-10
  2 51 106  -2.07989111E-09
  4 51 106  -1.47903377E-10
  2 51 107  -2.07989111E-09
  4 51 107  -1.47903377E-10
  2 51 108  -2.07989111E-09
  4 51 108  -1.47903377E-10
  2 52 95  -2.07989111E-09
  4 52 95  -1.47903377E-10
  2 52 96  -2.07989111E-09
  4 52 96  -1.47903377E-10
  2 52 97  -2.07989111E-09
  4 52 97  -1.47903377E-10
  2 52 98  -2.07989111E-09
  4 52 98  -1.47903377E-10
  2 52 99  -2.07989111E-09
  4 52 99  -1.47903377E-10
  2 52 100  -2.07989111E-09
  4 52 100  -1.47903377E-10
  2 52 101  -2.07989111E-09
  4 52 101  -1.47903377E-10
  2 52 102  -2.07989111E-09
  4 52 102  -1.47903377E-10
  2 52 103  -2.07989111E-09
  4 52 103  -1.47903377E-10
  2 52 104  -2.07989111E-09
  4 52 104  -1.47903377E-10
  2 52 105  -2.07989111E-09
  4 52 105  -1.47903377E-10
  2 52 106  -2.07989111E-09
  4 52 106  -1.47903377E-10
  2 52 107  -2.07989111E-09
  4 52 107  -1.47903377E-10
  2 52 108  -2.07989111E-09
  4 52 108  -1.47903377E-10
  2 53 95  -2.07989111E-09
  4 53 95  -1.47903377E-10
  2 53 96  -2.07989111E-09
  4 53 96  -1.47903377E-10
  2 53 97  -2.07989111E-09
  4 53 97  -1.47903377E-10
  2 53 98  -2.07989111E-09
  4 53 98  -1.47903377E-10
  2 53 99  -2.07989111E-09
  4 53 99  -1.47903377E-10
  2 53 100  -2.07989111E-09
  4 53 100  -1.47903377E-10
  2 53 101  -2.07989111E-09
  4 53 101  -1.47903377E-10
  2 53 102  -2.07989111E-09
  4 53 102  -1.47903377E-10
  2 53 103  -2.07989111E-09
  4 53 103  -1.47903377E-10
  2 53 104  -2.07989111E-09
  4 53 104  -1.47903377E-10
  2 53 105  -2.07989111E-09
  4 53 105  -1.47903377E-10
  2 53 106  -2.07989111E-09
  4 53 106  -1.47903377E-10
  2 53 107  -2.07989111E-09
  4 53 107  -1.47903377E-10
  2 53 108  -2.07989111E-09
  4 53 108  -1.47903377E-10
  2 54 95  -2.07989111E-09
  4 54 95  -1.47903377E-10
  2 54 96  -2.07989111E-09
  4 54 96  -1.47903377E-10
  2 54 97  -2.07989111E-09
  4 54 97  -1.47903377E-10
  2 54 98  -2.07989111E-09
  4 54 98  -1.47903377E-10
  2 54 99  -2.07989111E-09
  4 54 99  -1.47903377E-10
  2 54 100  -2.07989111E-09
  4 54 100  -1.47903377E-10
  2 54 101  -2.07989111E-09
  4 54 101  -1.47903377E-10
  2 54 102  -2.07989111E-09
  4 54 102  -1.47903377E-10
  2 54 103  -2.07989111E-09
  4 54 103  -1.47903377E-10
  2 54 104  -2.07989111E-09
  4 54 104  -1.47903377E-10
  2 54 105  -2.07989111E-09
  4 54 105  -1.47903377E-10
  2 54 106  -2.07989111E-09
  4 54 106  -1.47903377E-10
  2 54 107  -2.07989111E-09
  4 54 107  -1.47903377E-10
  2 54 108  -2.07989111E-09
  4 54 108  -1.47903377E-10
  2 55 95  -2.07989111E-09
  4 55 95  -1.47903377E-10
  2 55 96  -2.07989111E-09
  4 55 96  -1.47903377E-10
  2 55 97  -2.07989111E-09
  4 55 97  -1.47903377E-10
  2 55 98  -2.07989111E-09
  4 55 98  -1.47903377E-10
  2 55 99  -2.07989111E-09
  4 55 99  -1.47903377E-10
  2 55 100  -2.07989111E-09
  4 55 100  -1.47903377E-10
  2 55 101  -2.07989111E-09
  4 55 101  -1.47903377E-10
  2 55 102  -2.07989111E-09
  4 55 102  -1.47903377E-10
  2 55 103  -2.07989111E-09
  4 55 103  -1.47903377E-10
  2 55 104  -2.07989111E-09
  4 55 104  -1.47903377E-10
  2 55 105  -2.07989111E-09
  4 55 105  -1.47903377E-10
  2 55 106  -2.07989111E-09
  4 55 106  -1.47903377E-10
  2 55 107  -2.07989111E-09
  4 55 107  -1.47903377E-10
  2 55 108  -2.07989111E-09
  4 55 108  -1.47903377E-10
  2 56 95  -2.07989111E-09
  4 56 95  -1.47903377E-10
  2 56 96  -2.07989111E-09
  4 56 96  -1.47903377E-10
  2 56 97  -2.07989111E-09
  4 56 97  -1.47903377E-10
  2 56 98  -2.07989111E-09
  4 56 98  -1.47903377E-10
  2 56 99  -2.07989111E-09
  4 56 99  -1.47903377E-10
  2 56 100  -2.07989111E-09
  4 56 100  -1.47903377E-10
  2 56 101  -2.07989111E-09
  4 56 101  -1.47903377E-10
  2 56 102  -2.07989111E-09
  4 56 102  -1.47903377E-10
  2 56 103  -2.07989111E-09
  4 56 103  -1.47903377E-10
  2 56 104  -2.07989111E-09
  4 56 104  -1.47903377E-10
  2 56 105  -2.07989111E-09
  4 56 105  -1.47903377E-10
  2 56 106  -2.07989111E-09
  4 56 106  -1.47903377E-10
  2 56 107  -2.07989111E-09
  4 56 107  -1.47903377E-10
  2 56 108  -2.07989111E-09
  4 56 108  -1.47903377E-10
  2 57 95  -2.07989111E-09
  4 57 95  -1.47903377E-10
  2 57 96  -2.07989111E-09
  4 57 96  -1.47903377E-10
  2 57 97  -2.07989111E-09
  4 57 97  -1.47903377E-10
  2 57 98  -2.07989111E-09
  4 57 98  -1.47903377E-10
  2 57 99  -2.07989111E-09
  4 57 99  -1.47903377E-10
  2 57 100  -2.07989111E-09
  4 57 100  -1.47903377E-10
  2 57 101  -2.07989111E-09
  4 57 101  -1.47903377E-10
  2 57 102  -2.07989111E-09
  4 57 102  -1.47903377E-10
  2 57 103  -2.07989111E-09
  4 57 103  -1.47903377E-10
  2 57 104  -2.07989111E-09
  4 57 104  -1.47903377E-10
  2 57 105  -2.07989111E-09
  4 57 105  -1.47903377E-10
  2 57 106  -2.07989111E-09
  4 57 106  -1.47903377E-10
  2 57 107  -2.07989111E-09
  4 57 107  -1.47903377E-10
  2 57 108  -2.07989111E-09
  4 57 108  -1.47903377E-10
  2 57 109  -2.07989111E-09
  4 57 109  -1.47903377E-10
  2 58 95  -2.07989111E-09
  4 58 95  -1.47903377E-10
  2 58 96  -2.07989111E-09
  4 58 96  -1.47903377E-10
  2 58 97  -2.07989111E-09
  4 58 97  -1.47903377E-10
  2 58 98  -2.07989111E-09
  4 58 98  -1.47903377E-10
  2 58 99  -2.07989111E-09
  4 58 99  -1.47903377E-10
  2 58 100  -2.07989111E-09
  4 58 100  -1.47903377E-10
  2 58 101  -2.07989111E-09
  4 58 101  -1.47903377E-10
  2 58 102  -2.07989111E-09
  4 58 102  -1.47903377E-10
  2 58 103  -2.07989111E-09
  4 58 103  -1.47903377E-10
  2 58 104  -2.07989111E-09
  4 58 104  -1.47903377E-10
  2 58 105  -2.07989111E-09
  4 58 105  -1.47903377E-10
  2 58 106  -2.07989111E-09
  4 58 106  -1.47903377E-10
  2 58 107  -2.07989111E-09
  4 58 107  -1.47903377E-10
  2 58 108  -2.07989111E-09
  4 58 108  -1.47903377E-10
  2 58 109  -2.07989111E-09
  4 58 109  -1.47903377E-10
  2 59 95  -2.07989111E-09
  4 59 95  -1.47903377E-10
  2 59 96  -2.07989111E-09
  4 59 96  -1.47903377E-10
  2 59 97  -2.07989111E-09
  4 59 97  -1.47903377E-10
  2 59 98  -2.07989111E-09
  4 59 98  -1.47903377E-10
  2 59 99  -2.07989111E-09
  4 59 99  -1.47903377E-10
  2 59 100  -2.07989111E-09
  4 59 100  -1.47903377E-10
  2 59 101  -2.07989111E-09
  4 59 101  -1.47903377E-10
  2 59 102  -2.07989111E-09
  4 59 102  -1.47903377E-10
  2 59 103  -2.07989111E-09
  4 59 103  -1.47903377E-10
  2 59 104  -2.07989111E-09
  4 59 104  -1.47903377E-10
  2 59 105  -2.07989111E-09
  4 59 105  -1.47903377E-10
  2 59 106  -2.07989111E-09
  4 59 106  -1.47903377E-10
  2 59 107  -2.07989111E-09
  4 59 107  -1.47903377E-10
  2 59 108  -2.07989111E-09
  4 59 108  -1.47903377E-10
  2 59 109  -2.07989111E-09
  4 59 109  -1.47903377E-10
  2 60 96  -2.07989111E-09
  4 60 96  -1.47903377E-10
  2 60 97  -2.07989111E-09
  4 60 97  -1.47903377E-10
  2 60 98  -2.07989111E-09
  4 60 98  -1.47903377E-10
  2 60 99  -2.07989111E-09
  4 60 99  -1.47903377E-10
  2 60 100  -2.07989111E-09
  4 60 100  -1.47903377E-10
  2 60 101  -2.07989111E-09
  4 60 101  -1.47903377E-10
  2 60 102  -2.07989111E-09
  4 60 102  -1.47903377E-10
  2 60 103  -2.07989111E-09
  4 60 103  -1.47903377E-10
  2 60 104  -2.07989111E-09
  4 60 104  -1.47903377E-10
  2 60 105  -2.07989111E-09
  4 60 105  -1.47903377E-10
  2 60 106  -2.07989111E-09
  4 60 106  -1.47903377E-10
  2 60 107  -2.07989111E-09
  4 60 107  -1.47903377E-10
  2 60 108  -2.07989111E-09
  4 60 108  -1.47903377E-10
  2 60 109  -2.07989111E-09
  4 60 109  -1.47903377E-10
  2 61 97  -2.07989111E-09
  4 61 97  -1.47903377E-10
  2 61 98  -2.07989111E-09
  4 61 98  -1.47903377E-10
  2 61 99  -2.07989111E-09
  4 61 99  -1.47903377E-10
  2 61 100  -2.07989111E-09
  4 61 100  -1.47903377E-10
  2 61 101  -2.07989111E-09
  4 61 101  -1.47903377E-10
  2 61 102  -2.07989111E-09
  4 61 102  -1.47903377E-10
  2 61 103  -2.07989111E-09
  4 61 103  -1.47903377E-10
  2 61 104  -2.07989111E-09
  4 61 104  -1.47903377E-10
  2 61 105  -2.07989111E-09
  4 61 105  -1.47903377E-10
  2 61 106  -2.07989111E-09
  4 61 106  -1.47903377E-10
  2 61 107  -2.07989111E-09
  4 61 107  -1.47903377E-10
  2 61 108  -2.07989111E-09
  4 61 108  -1.47903377E-10
  2 61 109  -2.07989111E-09
  4 61 109  -1.47903377E-10
  2 61 110  -2.07989111E-09
  4 61 110  -1.47903377E-10
  2 62 97  -2.07989111E-09
  4 62 97  -1.47903377E-10
  2 62 98  -2.07989111E-09
  4 62 98  -1.47903377E-10
  2 62 99  -2.07989111E-09
  4 62 99  -1.47903377E-10
  2 62 100  -2.07989111E-09
  4 62 100  -1.47903377E-10
  2 62 101  -2.07989111E-09
  4 62 101  -1.47903377E-10
  2 62 102  -2.07989111E-09
  4 62 102  -1.47903377E-10
  2 62 103  -2.07989111E-09
  4 62 103  -1.47903377E-10
  2 62 104  -2.07989111E-09
  4 62 104  -1.47903377E-10
  2 62 105  -2.07989111E-09
  4 62 105  -1.47903377E-10
  2 62 106  -2.07989111E-09
  4 62 106  -1.47903377E-10
  2 62 107  -2.07989111E-09
  4 62 107  -1.47903377E-10
  2 62 108  -2.07989111E-09
  4 62 108  -1.47903377E-10
  2 62 109  -2.07989111E-09
  4 62 109  -1.47903377E-10
  2 62 110  -2.07989111E-09
  4 62 110  -1.47903377E-10
  2 62 111  -2.07989111E-09
  4 62 111  -1.47903377E-10
  2 62 112  -2.07989111E-09
  4 62 112  -1.47903377E-10
  2 63 97  -2.07989111E-09
  4 63 97  -1.47903377E-10
  2 63 98  -2.07989111E-09
  4 63 98  -1.47903377E-10
  2 63 99  -2.07989111E-09
  4 63 99  -1.47903377E-10
  2 63 100  -2.07989111E-09
  4 63 100  -1.47903377E-10
  2 63 101  -2.07989111E-09
  4 63 101  -1.47903377E-10
  2 63 102  -2.07989111E-09
  4 63 102  -1.47903377E-10
  2 63 103  -2.07989111E-09
  4 63 103  -1.47903377E-10
  2 63 104  -2.07989111E-09
  4 63 104  -1.47903377E-10
  2 63 105  -2.07989111E-09
  4 63 105  -1.47903377E-10
  2 63 106  -2.07989111E-09
  4 63 106  -1.47903377E-10
  2 63 107  -2.07989111E-09
  4 63 107  -1.47903377E-10
  2 63 108  -2.07989111E-09
  4 63 108  -1.47903377E-10
  2 63 109  -2.07989111E-09
  4 63 109  -1.47903377E-10
  2 63 110  -2.07989111E-09
  4 63 110  -1.47903377E-10
  2 63 111  -2.07989111E-09
  4 63 111  -1.47903377E-10
  2 63 112  -2.07989111E-09
  4 63 112  -1.47903377E-10
  2 63 113  -2.07989111E-09
  4 63 113  -1.47903377E-10
  2 64 98  -2.07989111E-09
  4 64 98  -1.47903377E-10
  2 64 99  -2.07989111E-09
  4 64 99  -1.47903377E-10
  2 64 100  -2.07989111E-09
  4 64 100  -1.47903377E-10
  2 64 101  -2.07989111E-09
  4 64 101  -1.47903377E-10
  2 64 102  -2.07989111E-09
  4 64 102  -1.47903377E-10
  2 64 103  -2.07989111E-09
  4 64 103  -1.47903377E-10
  2 64 104  -2.07989111E-09
  4 64 104  -1.47903377E-10
  2 64 105  -2.07989111E-09
  4 64 105  -1.47903377E-10
  2 64 106  -2.07989111E-09
  4 64 106  -1.47903377E-10
  2 64 107  -2.07989111E-09
  4 64 107  -1.47903377E-10
  2 64 108  -2.07989111E-09
  4 64 108  -1.47903377E-10
  2 64 109  -2.07989111E-09
  4 64 109  -1.47903377E-10
  2 64 110  -2.07989111E-09
  4 64 110  -1.47903377E-10
  2 64 111  -2.07989111E-09
  4 64 111  -1.47903377E-10
  2 64 112  -2.07989111E-09
  4 64 112  -1.47903377E-10
  2 64 113  -2.07989111E-09
  4 64 113  -1.47903377E-10
  2 64 114  -2.07989111E-09
  4 64 114  -1.47903377E-10
  2 65 75  -2.07989111E-09
  2 65 99  -2.07989111E-09
  4 65 99  -1.47903377E-10
  2 65 100  -2.07989111E-09
  4 65 100  -1.47903377E-10
  2 65 101  -2.07989111E-09
  4 65 101  -1.47903377E-10
  2 65 102  -2.07989111E-09
  4 65 102  -1.47903377E-10
  2 65 103  -2.07989111E-09
  4 65 103  -1.47903377E-10
  2 65 104  -2.07989111E-09
  4 65 104  -1.47903377E-10
  2 65 105  -2.07989111E-09
  4 65 105  -1.47903377E-10
  2 65 106  -2.07989111E-09
  4 65 106  -1.47903377E-10
  2 65 107  -2.07989111E-09
  4 65 107  -1.47903377E-10
  2 65 108  -2.07989111E-09
  4 65 108  -1.47903377E-10
  2 65 109  -2.07989111E-09
  4 65 109  -1.47903377E-10
  2 65 110  -2.07989111E-09
  4 65 110  -1.47903377E-10
  2 65 111  -2.07989111E-09
  4 65 111  -1.47903377E-10
  2 65 112  -2.07989111E-09
  4 65 112  -1.47903377E-10
  2 65 113  -2.07989111E-09
  4 65 113  -1.47903377E-10
  2 65 114  -2.07989111E-09
  4 65 114  -1.47903377E-10
  2 65 115  -2.07989111E-09
  4 65 115  -1.47903377E-10
  2 65 116  -2.07989111E-09
  4 65 116  -1.47903377E-10
  2 66 73  -2.07989111E-09
  2 66 74  -2.07989111E-09
  2 66 75  -2.07989111E-09
  4 66 75  -1.47903377E-10
  2 66 77  -2.07989111E-09
  4 66 77  -1.47903377E-10
  2 66 78  -2.07989111E-09
  4 66 78  -1.47903377E-10
  2 66 83  -2.07989111E-09
  4 66 83  -1.47903377E-10
  2 66 84  -2.07989111E-09
  4 66 84  -1.47903377E-10
  2 66 101  -2.07989111E-09
  4 66 101  -1.47903377E-10
  2 66 102  -2.07989111E-09
  4 66 102  -1.47903377E-10
  2 66 103  -2.07989111E-09
  4 66 103  -1.47903377E-10
  2 66 104  -2.07989111E-09
  4 66 104  -1.47903377E-10
  2 66 105  -2.07989111E-09
  4 66 105  -1.47903377E-10
  2 66 106  -2.07989111E-09
  4 66 106  -1.47903377E-10
  2 66 107  -2.07989111E-09
  4 66 107  -1.47903377E-10
  2 66 108  -2.07989111E-09
  4 66 108  -1.47903377E-10
  2 66 109  -2.07989111E-09
  4 66 109  -1.47903377E-10
  2 66 110  -2.07989111E-09
  4 66 110  -1.47903377E-10
  2 66 111  -2.07989111E-09
  4 66 111  -1.47903377E-10
  2 66 112  -2.07989111E-09
  4 66 112  -1.47903377E-10
  2 66 113  -2.07989111E-09
  4 66 113  -1.47903377E-10
  2 66 114  -2.07989111E-09
  4 66 114  -1.47903377E-10
  2 66 115  -2.07989111E-09
  4 66 115  -1.47903377E-10
  2 66 116  -2.07989111E-09
  4 66 116  -1.47903377E-10
  2 66 117  -2.07989111E-09
  4 66 117  -1.47903377E-10
  2 66 118  -2.07989111E-09
  4 66 118  -1.47903377E-10
  2 67 73  -2.07989111E-09
  2 67 74  -2.07989111E-09
  4 67 74  -1.47903377E-10
  2 67 75  -2.07989111E-09
  4 67 75  -1.47903377E-10
  2 67 76  -2.07989111E-09
  4 67 76  -1.47903377E-10
  2 67 77  -2.07989111E-09
  4 67 77  -1.47903377E-10
  2 67 82  -2.07989111E-09
  4 67 82  -1.47903377E-10
  2 67 83  -2.07989111E-09
  4 67 83  -1.47903377E-10
  2 67 103  -2.07989111E-09
  4 67 103  -1.47903377E-10
  2 67 104  -2.07989111E-09
  4 67 104  -1.47903377E-10
  2 67 105  -2.07989111E-09
  4 67 105  -1.47903377E-10
  2 67 106  -2.07989111E-09
  4 67 106  -1.47903377E-10
  2 67 107  -2.07989111E-09
  4 67 107  -1.47903377E-10
  2 67 108  -2.07989111E-09
  4 67 108  -1.47903377E-10
  2 67 109  -2.07989111E-09
  4 67 109  -1.47903377E-10
  2 67 110  -2.07989111E-09
  4 67 110  -1.47903377E-10
  2 67 111  -2.07989111E-09
  4 67 111  -1.47903377E-10
  2 67 112  -2.07989111E-09
  4 67 112  -1.47903377E-10
  2 67 113  -2.07989111E-09
  4 67 113  -1.47903377E-10
  2 67 114  -2.07989111E-09
  4 67 114  -1.47903377E-10
  2 67 115  -2.07989111E-09
  4 67 115  -1.47903377E-10
  2 67 116  -2.07989111E-09
  4 67 116  -1.47903377E-10
  2 67 117  -2.07989111E-09
  4 67 117  -1.47903377E-10
  2 67 118  -2.07989111E-09
  4 67 118  -1.47903377E-10
  2 67 119  -2.07989111E-09
  4 67 119  -1.47903377E-10
  2 67 120  -2.07989111E-09
  4 67 120  -1.47903377E-10
  2 68 73  -2.07989111E-09
  4 68 73  -1.47903377E-10
  2 68 74  -2.07989111E-09
  5 68 74  -1.47903377E-10
  2 68 75  -2.07989111E-09
  4 68 75  -1.47903377E-10
  2 68 76  -2.07989111E-09
  4 68 76  -1.47903377E-10
  2 68 77  -2.07989111E-09
  4 68 77  -1.47903377E-10
  2 68 79  -2.07989111E-09
  4 68 79  -1.47903377E-10
  2 68 80  -2.07989111E-09
  4 68 80  -1.47903377E-10
  2 68 88  -2.07989111E-09
  4 68 88  -1.47903377E-10
  2 68 89  -2.07989111E-09
  4 68 89  -1.47903377E-10
  2 68 90  -2.07989111E-09
  4 68 90  -1.47903377E-10
  2 68 105  -2.07989111E-09
  4 68 105  -1.47903377E-10
  2 68 106  -2.07989111E-09
  4 68 106  -1.47903377E-10
  2 68 107  -2.07989111E-09
  4 68 107  -1.47903377E-10
  2 68 108  -2.07989111E-09
  4 68 108  -1.47903377E-10
  2 68 109  -2.07989111E-09
  4 68 109  -1.47903377E-10
  2 68 110  -2.07989111E-09
  4 68 110  -1.47903377E-10
  2 68 111  -2.07989111E-09
  4 68 111  -1.47903377E-10
  2 68 112  -2.07989111E-09
  4 68 112  -1.47903377E-10
  2 68 113  -2.07989111E-09
  4 68 113  -1.47903377E-10
  2 68 114  -2.07989111E-09
  4 68 114  -1.47903377E-10
  2 68 115  -2.07989111E-09
  4 68 115  -1.47903377E-10
  2 68 116  -2.07989111E-09
  4 68 116  -1.47903377E-10
  2 68 117  -2.07989111E-09
  4 68 117  -1.47903377E-10
  2 68 118  -2.07989111E-09
  4 68 118  -1.47903377E-10
  2 68 119  -2.07989111E-09
  4 68 119  -1.47903377E-10
  2 68 120  -2.07989111E-09
  4 68 120  -1.47903377E-10
  2 68 121  -2.07989111E-09
  4 68 121  -1.47903377E-10
  2 69 73  -1.06739695E-09
  5 69 73  -2.04053039E-10
  2 69 74  -2.07989111E-09
  5 69 74  -1.47903377E-10
  2 69 75  -2.07989111E-09
  5 69 75  -1.47903377E-10
  2 69 76  -2.07989111E-09
  4 69 76  -1.47903377E-10
  2 69 77  -2.07989111E-09
  4 69 77  -1.47903377E-10
  2 69 78  -2.07989111E-09
  4 69 78  -1.47903377E-10
  2 69 79  -2.07989111E-09
  4 69 79  -1.47903377E-10
  2 69 80  -2.07989111E-09
  4 69 80  -1.47903377E-10
  2 69 81  -2.07989111E-09
  4 69 81  -1.47903377E-10
  2 69 88  -2.07989111E-09
  4 69 88  -1.47903377E-10
  2 69 89  -2.07989111E-09
  4 69 89  -1.47903377E-10
  2 69 90  -2.07989111E-09
  4 69 90  -1.47903377E-10
  2 69 107  -2.07989111E-09
  4 69 107  -1.47903377E-10
  2 69 108  -2.07989111E-09
  4 69 108  -1.47903377E-10
  2 69 109  -2.07989111E-09
  4 69 109  -1.47903377E-10
  2 69 110  -2.07989111E-09
  4 69 110  -1.47903377E-10
  2 69 111  -2.07989111E-09
  4 69 111  -1.47903377E-10
  2 69 112  -2.07989111E-09
  4 69 112  -1.47903377E-10
  2 69 113  -2.07989111E-09
  4 69 113  -1.47903377E-10
  2 69 114  -2.07989111E-09
  4 69 114  -1.47903377E-10
  2 69 115  -2.07989111E-09
  4 69 115  -1.47903377E-10
  2 69 116  -2.07989111E-09
  4 69 116  -1.47903377E-10
  2 69 117  -2.07989111E-09
  4 69 117  -1.47903377E-10
  2 69 118  -2.07989111E-09
  4 69 118  -1.47903377E-10
  2 69 119  -2.07989111E-09
  4 69 119  -1.47903377E-10
  2 69 120  -2.07989111E-09
  4 69 120  -1.47903377E-10
  2 69 121  -2.07989111E-09
  4 69 121  -1.47903377E-10
  2 70 72  -1.06739695E-09
  4 70 72  -2.04053039E-10
  2 70 73  -1.06739695E-09
  4 70 73  -2.04053039E-10
  2 70 74  -1.06739695E-09
  4 70 74  -2.04053039E-10
  2 70 75  -1.06739695E-09
  4 70 75  -2.04053039E-10
  2 70 76  -2.07989111E-09
  4 70 76  -1.47903377E-10
  2 70 77  -2.07989111E-09
  4 70 77  -1.47903377E-10
  2 70 78  -2.07989111E-09
  4 70 78  -1.47903377E-10
  2 70 79  -2.07989111E-09
  4 70 79  -1.47903377E-10
  2 70 80  -2.07989111E-09
  4 70 80  -1.47903377E-10
  2 70 81  -2.07989111E-09
  4 70 81  -1.47903377E-10
  2 70 87  -2.07989111E-09
  4 70 87  -1.47903377E-10
  2 70 88  -2.07989111E-09
  4 70 88  -1.47903377E-10
  2 70 89  -2.07989111E-09
  4 70 89  -1.47903377E-10
  2 70 90  -2.07989111E-09
  4 70 90  -1.47903377E-10
  2 70 109  -2.07989111E-09
  4 70 109  -1.47903377E-10
  2 70 110  -2.07989111E-09
  4 70 110  -1.47903377E-10
  2 70 111  -2.07989111E-09
  4 70 111  -1.47903377E-10
  2 70 112  -2.07989111E-09
  4 70 112  -1.47903377E-10
  2 70 113  -2.07989111E-09
  4 70 113  -1.47903377E-10
  2 70 114  -2.07989111E-09
  4 70 114  -1.47903377E-10
  2 70 115  -2.07989111E-09
  4 70 115  -1.47903377E-10
  2 70 116  -2.07989111E-09
  4 70 116  -1.47903377E-10
  2 70 117  -2.07989111E-09
  4 70 117  -1.47903377E-10
  2 70 118  -2.07989111E-09
  4 70 118  -1.47903377E-10
  2 70 119  -2.07989111E-09
  4 70 119  -1.47903377E-10
  2 70 120  -2.07989111E-09
  4 70 120  -1.47903377E-10
  2 70 121  -2.07989111E-09
  4 70 121  -1.47903377E-10
  2 70 122  -2.07989111E-09
  4 70 122  -1.47903377E-10
  2 71 72  -1.06739695E-09
  4 71 72  -2.04053039E-10
  2 71 73  -1.06739695E-09
  4 71 73  -2.04053039E-10
  2 71 74  -1.06739695E-09
  4 71 74  -2.04053039E-10
  2 71 75  -1.06739695E-09
  4 71 75  -2.04053039E-10
  2 71 76  -1.06739695E-09
  4 71 76  -2.04053039E-10
  2 71 77  -2.07989111E-09
  4 71 77  -1.47903377E-10
  2 71 78  -2.07989111E-09
  4 71 78  -1.47903377E-10
  2 71 79  -2.07989111E-09
  4 71 79  -1.47903377E-10
  2 71 80  -2.07989111E-09
  4 71 80  -1.47903377E-10
  2 71 81  -2.07989111E-09
  4 71 81  -1.47903377E-10
  2 71 82  -2.07989111E-09
  4 71 82  -1.47903377E-10
  2 71 85  -2.07989111E-09
  4 71 85  -1.47903377E-10
  2 71 86  -2.07989111E-09
  4 71 86  -1.47903377E-10
  2 71 87  -6.63236747E-09
  4 71 87  -1.26790190E-09
  2 71 88  -6.63236747E-09
  4 71 88  -1.26790190E-09
  2 71 89  -2.07989111E-09
  4 71 89  -1.47903377E-10
  2 71 90  -2.07989111E-09
  4 71 90  -1.47903377E-10
  2 71 91  -2.07989111E-09
  4 71 91  -1.47903377E-10
  2 71 92  -6.63236747E-09
  4 71 92  -1.26790190E-09
  2 71 109  -2.07989111E-09
  4 71 109  -1.47903377E-10
  2 71 110  -2.07989111E-09
  4 71 110  -1.47903377E-10
  2 71 111  -2.07989111E-09
  4 71 111  -1.47903377E-10
  2 71 112  -2.07989111E-09
  4 71 112  -1.47903377E-10
  2 71 113  -2.07989111E-09
  4 71 113  -1.47903377E-10
  2 71 114  -2.07989111E-09
  4 71 114  -1.47903377E-10
  2 71 115  -2.07989111E-09
  4 71 115  -1.47903377E-10
  2 71 116  -2.07989111E-09
  4 71 116  -1.47903377E-10
  2 71 117  -2.07989111E-09
  4 71 117  -1.47903377E-10
  2 71 118  -2.07989111E-09
  4 71 118  -1.47903377E-10
  2 71 119  -2.07989111E-09
  4 71 119  -1.47903377E-10
  2 71 120  -2.07989111E-09
  4 71 120  -1.47903377E-10
  2 71 121  -2.07989111E-09
  4 71 121  -1.47903377E-10
  2 71 122  -2.07989111E-09
  4 71 122  -1.47903377E-10
  2 72 73  -1.06739695E-09
  4 72 73  -2.04053039E-10
  2 72 74  -1.06739695E-09
  4 72 74  -2.04053039E-10
  2 72 75  -1.06739695E-09
  4 72 75  -2.04053039E-10
  2 72 76  -1.06739695E-09
  4 72 76  -2.04053039E-10
  2 72 83  -2.07989111E-09
  4 72 83  -1.47903377E-10
  2 72 84  -2.07989111E-09
  4 72 84  -1.47903377E-10
  2 72 85  -2.07989111E-09
  4 72 85  -1.47903377E-10
  2 72 86  -2.07989111E-09
  4 72 86  -1.47903377E-10
  2 72 87  -2.07989111E-09
  4 72 87  -1.47903377E-10
  2 72 88  -2.07989111E-09
  4 72 88  -1.47903377E-10
  2 72 89  -6.63236747E-09
  4 72 89  -1.26790190E-09
  2 72 90  -6.63236747E-09
  4 72 90  -1.26790190E-09
  2 72 91  -6.63236747E-09
  4 72 91  -1.26790190E-09
  2 72 92  -6.63236747E-09
  4 72 92  -1.26790190E-09
  2 72 93  -6.63236747E-09
  4 72 93  -1.26790190E-09
  2 72 109  -2.07989111E-09
  4 72 109  -1.47903377E-10
  2 72 110  -2.07989111E-09
  4 72 110  -1.47903377E-10
  2 72 111  -2.07989111E-09
  4 72 111  -1.47903377E-10
  2 72 112  -2.07989111E-09
  4 72 112  -1.47903377E-10
  2 72 113  -2.07989111E-09
  4 72 113  -1.47903377E-10
  2 72 114  -2.07989111E-09
  4 72 114  -1.47903377E-10
  2 72 115  -2.07989111E-09
  4 72 115  -1.47903377E-10
  2 72 116  -2.07989111E-09
  4 72 116  -1.47903377E-10
  2 72 117  -2.07989111E-09
  4 72 117  -1.47903377E-10
  2 72 118  -2.07989111E-09
  4 72 118  -1.47903377E-10
  2 72 119  -2.07989111E-09
  4 72 119  -1.47903377E-10
  2 72 120  -2.07989111E-09
  4 72 120  -1.47903377E-10
  2 72 121  -2.07989111E-09
  4 72 121  -1.47903377E-10
  2 72 122  -2.07989111E-09
  4 72 122  -1.47903377E-10
  2 72 123  -2.07989111E-09
  4 72 123  -1.47903377E-10
  2 73 75  -1.06739695E-09
  4 73 75  -2.04053039E-10
  2 73 76  -1.06739695E-09
  4 73 76  -2.04053039E-10
  2 73 83  -2.07989111E-09
  4 73 83  -1.47903377E-10
  2 73 84  -2.07989111E-09
  4 73 84  -1.47903377E-10
  2 73 85  -2.07989111E-09
  4 73 85  -1.47903377E-10
  2 73 86  -2.07989111E-09
  4 73 86  -1.47903377E-10
  2 73 87  -2.07989111E-09
  4 73 87  -1.47903377E-10
  2 73 88  -2.07989111E-09
  4 73 88  -1.47903377E-10
  2 73 89  -2.07989111E-09
  4 73 89  -1.47903377E-10
  2 73 90  -2.07989111E-09
  4 73 90  -1.47903377E-10
  2 73 91  -2.07989111E-09
  4 73 91  -1.47903377E-10
  2 73 92  -2.07989111E-09
  4 73 92  -1.47903377E-10
  2 73 93  -2.07989111E-09
  4 73 93  -1.47903377E-10
  2 73 94  -2.07989111E-09
  4 73 94  -1.47903377E-10
  2 73 95  -2.07989111E-09
  4 73 95  -1.47903377E-10
  2 73 99  -2.07989111E-09
  4 73 99  -1.47903377E-10
  2 73 100  -2.07989111E-09
  4 73 100  -1.47903377E-10
  2 73 101  -2.07989111E-09
  4 73 101  -1.47903377E-10
  2 73 109  -2.07989111E-09
  4 73 109  -1.47903377E-10
  2 73 110  -2.07989111E-09
  4 73 110  -1.47903377E-10
  2 73 111  -2.07989111E-09
  4 73 111  -1.47903377E-10
  2 73 112  -2.07989111E-09
  4 73 112  -1.47903377E-10
  2 73 113  -2.07989111E-09
  4 73 113  -1.47903377E-10
  2 73 114  -2.07989111E-09
  4 73 114  -1.47903377E-10
  2 73 115  -2.07989111E-09
  4 73 115  -1.47903377E-10
  2 73 116  -2.07989111E-09
  4 73 116  -1.47903377E-10
  2 73 117  -2.07989111E-09
  4 73 117  -1.47903377E-10
  2 73 118  -2.07989111E-09
  4 73 118  -1.47903377E-10
  2 73 119  -2.07989111E-09
  4 73 119  -1.47903377E-10
  2 73 120  -2.07989111E-09
  4 73 120  -1.47903377E-10
  2 73 121  -2.07989111E-09
  4 73 121  -1.47903377E-10
  2 73 122  -2.07989111E-09
  4 73 122  -1.47903377E-10
  2 73 123  -2.07989111E-09
  4 73 123  -1.47903377E-10
  2 74 76  -1.06739695E-09
  4 74 76  -2.04053039E-10
  2 74 87  -2.07989111E-09
  4 74 87  -1.47903377E-10
  2 74 88  -2.07989111E-09
  4 74 88  -1.47903377E-10
  2 74 89  -2.07989111E-09
  4 74 89  -1.47903377E-10
  2 74 90  -2.07989111E-09
  4 74 90  -1.47903377E-10
  2 74 91  -2.07989111E-09
  4 74 91  -1.47903377E-10
  2 74 92  -2.07989111E-09
  4 74 92  -1.47903377E-10
  2 74 93  -2.07989111E-09
  4 74 93  -1.47903377E-10
  2 74 94  -2.07989111E-09
  4 74 94  -1.47903377E-10
  2 74 95  -6.63236747E-09
  4 74 95  -1.26790190E-09
  2 74 96  -2.07989111E-09
  4 74 96  -1.47903377E-10
  2 74 97  -2.07989111E-09
  4 74 97  -1.47903377E-10
  2 74 98  -2.07989111E-09
  4 74 98  -1.47903377E-10
  2 74 99  -6.63236747E-09
  4 74 99  -1.26790190E-09
  2 74 100  -6.63236747E-09
  4 74 100  -1.26790190E-09
  2 74 101  -2.07989111E-09
  4 74 101  -1.47903377E-10
  2 74 102  -2.07989111E-09
  4 74 102  -1.47903377E-10
  2 74 109  -2.07989111E-09
  4 74 109  -1.47903377E-10
  2 74 110  -2.07989111E-09
  4 74 110  -1.47903377E-10
  2 74 111  -2.07989111E-09
  4 74 111  -1.47903377E-10
  2 74 112  -2.07989111E-09
  4 74 112  -1.47903377E-10
  2 74 113  -2.07989111E-09