BEGIN options
END options

BEGIN timing
  TDIS6  test_mf6_pst.tdis
END timing

BEGIN models
  gwf6  test_mf6_pst.nam  test_mf6_pst
END models

BEGIN exchanges
END exchanges

BEGIN solutiongroup  1
  ims6  test_mf6_pst.ims  test_mf6_pst
END solutiongroup  1

