BEGIN griddata
  strt
    INTERNAL  FACTOR  1.0
      -100.00000000    -100.00000000    -100.00000000    -100.00000000    -100.00000000    -100.00000000    -100.00000000    -100.00000000    -100.00000000    -100.00000000    -100.00000000    -100.00000000    -100.00000000    -100.00000000    -100.00000000    -100.00000000    -100.00000000    -100.00000000    -100.00000000    -100.00000000
      -100.00000000    -100.00000000    -100.00000000    -100.00000000    -100.00000000    -100.00000000    -100.00000000    -100.00000000    -100.00000000    -100.00000000    -100.00000000    -100.00000000    -100.00000000    -100.00000000    -100.00000000    -100.00000000    -100.00000000    -100.00000000    -100.00000000    -100.00000000
      -100.00000000    -100.00000000    -100.00000000    -100.00000000    -100.00000000    -100.00000000    -100.00000000    -100.00000000    -100.00000000    -100.00000000    -100.00000000    -100.00000000    -100.00000000    -100.00000000    -100.00000000    -100.00000000    -100.00000000    -100.00000000    -100.00000000    -100.00000000
      -100.00000000    -100.00000000    -100.00000000    -100.00000000    -100.00000000    -100.00000000    -100.00000000    -100.00000000    -100.00000000    -100.00000000    -100.00000000    -100.00000000    -100.00000000    -100.00000000    -100.00000000    -100.00000000    -100.00000000    -100.00000000    -100.00000000    -100.00000000
      -100.00000000    -100.00000000    -100.00000000    -100.00000000    -100.00000000    -100.00000000    -100.00000000    -100.00000000    -100.00000000    -100.00000000    -100.00000000    -100.00000000    -100.00000000    -100.00000000    -100.00000000    -100.00000000    -100.00000000    -100.00000000    -100.00000000    -100.00000000
      -100.00000000    -100.00000000    -100.00000000    -100.00000000    -100.00000000    -100.00000000    -100.00000000    -100.00000000    -100.00000000    -100.00000000    -100.00000000    -100.00000000    -100.00000000    -100.00000000    -100.00000000    -100.00000000    -100.00000000    -100.00000000    -100.00000000    -100.00000000
      -100.00000000    -100.00000000    -100.00000000    -100.00000000    -100.00000000    -100.00000000    -100.00000000    -100.00000000    -100.00000000    -100.00000000    -100.00000000    -100.00000000    -100.00000000    -100.00000000    -100.00000000    -100.00000000    -100.00000000    -100.00000000    -100.00000000    -100.00000000
      -100.00000000    -100.00000000    -100.00000000    -100.00000000    -100.00000000    -100.00000000    -100.00000000    -100.00000000    -100.00000000    -100.00000000    -100.00000000    -100.00000000    -100.00000000    -100.00000000    -100.00000000    -100.00000000    -100.00000000    -100.00000000    -100.00000000    -100.00000000
      -100.00000000    -100.00000000    -100.00000000    -100.00000000    -100.00000000    -100.00000000    -100.00000000    -100.00000000    -100.00000000    -100.00000000    -100.00000000    -100.00000000    -100.00000000    -100.00000000    -100.00000000    -100.00000000    -100.00000000    -100.00000000    -100.00000000    -100.00000000
      -100.00000000    -100.00000000    -100.00000000    -100.00000000    -100.00000000    -100.00000000    -100.00000000    -100.00000000    -100.00000000    -100.00000000    -100.00000000    -100.00000000    -100.00000000    -100.00000000    -100.00000000    -100.00000000    -100.00000000    -100.00000000    -100.00000000    -100.00000000
      -100.00000000    -100.00000000    -100.00000000    -100.00000000    -100.00000000    -100.00000000    -100.00000000    -100.00000000    -100.00000000    -100.00000000    -100.00000000    -100.00000000    -100.00000000    -100.00000000    -100.00000000    -100.00000000    -100.00000000    -100.00000000    -100.00000000    -100.00000000
      -100.00000000    -100.00000000    -100.00000000    -100.00000000    -100.00000000    -100.00000000    -100.00000000    -100.00000000    -100.00000000    -100.00000000    -100.00000000    -100.00000000    -100.00000000    -100.00000000    -100.00000000    -100.00000000    -100.00000000    -100.00000000    -100.00000000    -100.00000000
      -100.00000000    -100.00000000    -100.00000000    -100.00000000    -100.00000000    -100.00000000    -100.00000000    -100.00000000    -100.00000000    -100.00000000    -100.00000000    -100.00000000    -100.00000000    -100.00000000    -100.00000000    -100.00000000    -100.00000000    -100.00000000    -100.00000000    -100.00000000
      -100.00000000    -100.00000000    -100.00000000    -100.00000000    -100.00000000    -100.00000000    -100.00000000    -100.00000000    -100.00000000    -100.00000000    -100.00000000    -100.00000000    -100.00000000    -100.00000000    -100.00000000    -100.00000000    -100.00000000    -100.00000000    -100.00000000    -100.00000000
      -100.00000000    -100.00000000    -100.00000000    -100.00000000    -100.00000000    -100.00000000    -100.00000000    -100.00000000    -100.00000000    -100.00000000    -100.00000000    -100.00000000    -100.00000000    -100.00000000    -100.00000000    -100.00000000    -100.00000000    -100.00000000    -100.00000000    -100.00000000
      -100.00000000    -100.00000000    -100.00000000    -100.00000000    -100.00000000    -100.00000000    -100.00000000    -100.00000000    -100.00000000    -100.00000000    -100.00000000    -100.00000000    -100.00000000    -100.00000000    -100.00000000    -100.00000000    -100.00000000    -100.00000000    -100.00000000    -100.00000000
      -100.00000000    -100.00000000    -100.00000000    -100.00000000    -100.00000000    -100.00000000    -100.00000000    -100.00000000    -100.00000000    -100.00000000    -100.00000000    -100.00000000    -100.00000000    -100.00000000    -100.00000000    -100.00000000    -100.00000000    -100.00000000    -100.00000000    -100.00000000
      -100.00000000    -100.00000000    -100.00000000    -100.00000000    -100.00000000    -100.00000000    -100.00000000    -100.00000000    -100.00000000    -100.00000000    -100.00000000    -100.00000000    -100.00000000    -100.00000000    -100.00000000    -100.00000000    -100.00000000    -100.00000000    -100.00000000    -100.00000000
      -100.00000000    -100.00000000    -100.00000000    -100.00000000    -100.00000000    -100.00000000    -100.00000000    -100.00000000    -100.00000000    -100.00000000    -100.00000000    -100.00000000    -100.00000000    -100.00000000    -100.00000000    -100.00000000    -100.00000000    -100.00000000    -100.00000000    -100.00000000
      -100.00000000    -100.00000000    -100.00000000    -100.00000000    -100.00000000    -100.00000000    -100.00000000    -100.00000000    -100.00000000    -100.00000000    -100.00000000    -100.00000000    -100.00000000    -100.00000000    -100.00000000    -100.00000000    -100.00000000    -100.00000000    -100.00000000    -100.00000000
      -100.00000000    -100.00000000    -100.00000000    -100.00000000    -100.00000000    -100.00000000    -100.00000000    -100.00000000    -100.00000000    -100.00000000    -100.00000000    -100.00000000    -100.00000000    -100.00000000    -100.00000000    -100.00000000    -100.00000000    -100.00000000    -100.00000000    -100.00000000
      -100.00000000    -100.00000000    -100.00000000    -100.00000000    -100.00000000    -100.00000000    -100.00000000    -100.00000000    -100.00000000    -100.00000000    -100.00000000    -100.00000000    -100.00000000    -100.00000000    -100.00000000    -100.00000000    -100.00000000    -100.00000000    -100.00000000    -100.00000000
      -100.00000000    -100.00000000    -100.00000000    -100.00000000    -100.00000000    -100.00000000    -100.00000000    -100.00000000    -100.00000000    -100.00000000    -100.00000000    -100.00000000    -100.00000000    -100.00000000    -100.00000000    -100.00000000    -100.00000000    -100.00000000    -100.00000000    -100.00000000
      -100.00000000    -100.00000000    -100.00000000    -100.00000000    -100.00000000    -100.00000000    -100.00000000    -100.00000000    -100.00000000    -100.00000000    -100.00000000    -100.00000000    -100.00000000    -100.00000000    -100.00000000    -100.00000000    -100.00000000    -100.00000000    -100.00000000    -100.00000000
      -100.00000000    -100.00000000    -100.00000000    -100.00000000    -100.00000000    -100.00000000    -100.00000000    -100.00000000    -100.00000000    -100.00000000    -100.00000000    -100.00000000    -100.00000000    -100.00000000    -100.00000000    -100.00000000    -100.00000000    -100.00000000    -100.00000000    -100.00000000
      -100.00000000    -100.00000000    -100.00000000    -100.00000000    -100.00000000    -100.00000000    -100.00000000    -100.00000000    -100.00000000    -100.00000000    -100.00000000    -100.00000000    -100.00000000    -100.00000000    -100.00000000    -100.00000000    -100.00000000    -100.00000000    -100.00000000    -100.00000000
      -100.00000000    -100.00000000    -100.00000000    -100.00000000    -100.00000000    -100.00000000    -100.00000000    -100.00000000    -100.00000000    -100.00000000    -100.00000000    -100.00000000    -100.00000000    -100.00000000    -100.00000000    -100.00000000    -100.00000000    -100.00000000    -100.00000000    -100.00000000
      -100.00000000    -100.00000000    -100.00000000    -100.00000000    -100.00000000    -100.00000000    -100.00000000    -100.00000000    -100.00000000    -100.00000000    -100.00000000    -100.00000000    -100.00000000    -100.00000000    -100.00000000    -100.00000000    -100.00000000    -100.00000000    -100.00000000    -100.00000000
      -100.00000000    -100.00000000    -100.00000000    -100.00000000    -100.00000000    -100.00000000    -100.00000000    -100.00000000    -100.00000000    -100.00000000    -100.00000000    -100.00000000    -100.00000000    -100.00000000    -100.00000000    -100.00000000    -100.00000000    -100.00000000    -100.00000000    -100.00000000
      -100.00000000    -100.00000000    -100.00000000    -100.00000000    -100.00000000    -100.00000000    -100.00000000    -100.00000000    -100.00000000    -100.00000000    -100.00000000    -100.00000000    -100.00000000    -100.00000000    -100.00000000    -100.00000000    -100.00000000    -100.00000000    -100.00000000    -100.00000000
      -100.00000000    -100.00000000    -100.00000000    -100.00000000    -100.00000000    -100.00000000    -100.00000000    -100.00000000    -100.00000000    -100.00000000    -100.00000000    -100.00000000    -100.00000000    -100.00000000    -100.00000000    -100.00000000    -100.00000000    -100.00000000    -100.00000000    -100.00000000
      -100.00000000    -100.00000000    -100.00000000    -100.00000000    -100.00000000    -100.00000000    -100.00000000    -100.00000000    -100.00000000    -100.00000000    -100.00000000    -100.00000000    -100.00000000    -100.00000000    -100.00000000    -100.00000000    -100.00000000    -100.00000000    -100.00000000    -100.00000000
      -100.00000000    -100.00000000    -100.00000000    -100.00000000    -100.00000000    -100.00000000    -100.00000000    -100.00000000    -100.00000000    -100.00000000    -100.00000000    -100.00000000    -100.00000000    -100.00000000    -100.00000000    -100.00000000    -100.00000000    -100.00000000    -100.00000000    -100.00000000
      -100.00000000    -100.00000000    -100.00000000    -100.00000000    -100.00000000    -100.00000000    -100.00000000    -100.00000000    -100.00000000    -100.00000000    -100.00000000    -100.00000000    -100.00000000    -100.00000000    -100.00000000    -100.00000000    -100.00000000    -100.00000000    -100.00000000    -100.00000000
      -100.00000000    -100.00000000    -100.00000000    -100.00000000    -100.00000000    -100.00000000    -100.00000000    -100.00000000    -100.00000000    -100.00000000    -100.00000000    -100.00000000    -100.00000000    -100.00000000    -100.00000000    -100.00000000    -100.00000000    -100.00000000    -100.00000000    -100.00000000
      -100.00000000    -100.00000000    -100.00000000    -100.00000000    -100.00000000    -100.00000000    -100.00000000    -100.00000000    -100.00000000    -100.00000000    -100.00000000    -100.00000000    -100.00000000    -100.00000000    -100.00000000    -100.00000000    -100.00000000    -100.00000000    -100.00000000    -100.00000000
      -100.00000000    -100.00000000    -100.00000000    -100.00000000    -100.00000000    -100.00000000    -100.00000000    -100.00000000    -100.00000000    -100.00000000    -100.00000000    -100.00000000    -100.00000000    -100.00000000    -100.00000000    -100.00000000    -100.00000000    -100.00000000    -100.00000000    -100.00000000
      -100.00000000    -100.00000000    -100.00000000    -100.00000000    -100.00000000    -100.00000000    -100.00000000    -100.00000000    -100.00000000    -100.00000000    -100.00000000    -100.00000000    -100.00000000    -100.00000000    -100.00000000    -100.00000000    -100.00000000    -100.00000000    -100.00000000    -100.00000000
      -100.00000000    -100.00000000    -100.00000000    -100.00000000    -100.00000000    -100.00000000    -100.00000000    -100.00000000    -100.00000000    -100.00000000    -100.00000000    -100.00000000    -100.00000000    -100.00000000    -100.00000000    -100.00000000    -100.00000000    -100.00000000    -100.00000000    -100.00000000
      -100.00000000    -100.00000000    -100.00000000    -100.00000000    -100.00000000    -100.00000000    -100.00000000    -100.00000000    -100.00000000    -100.00000000    -100.00000000    -100.00000000    -100.00000000    -100.00000000    -100.00000000    -100.00000000    -100.00000000    -100.00000000    -100.00000000    -100.00000000
      -100.00000000    -100.00000000    -100.00000000    -100.00000000    -100.00000000    -100.00000000    -100.00000000    -100.00000000    -100.00000000    -100.00000000    -100.00000000    -100.00000000    -100.00000000    -100.00000000    -100.00000000    -100.00000000    -100.00000000    -100.00000000    -100.00000000    -100.00000000
      -100.00000000    -100.00000000    -100.00000000    -100.00000000    -100.00000000    -100.00000000    -100.00000000    -100.00000000    -100.00000000    -100.00000000    -100.00000000    -100.00000000    -100.00000000    -100.00000000    -100.00000000    -100.00000000    -100.00000000    -100.00000000    -100.00000000    -100.00000000
      -100.00000000    -100.00000000    -100.00000000    -100.00000000    -100.00000000    -100.00000000    -100.00000000    -100.00000000    -100.00000000    -100.00000000    -100.00000000    -100.00000000    -100.00000000    -100.00000000    -100.00000000    -100.00000000    -100.00000000    -100.00000000    -100.00000000    -100.00000000
      -100.00000000    -100.00000000    -100.00000000    -100.00000000    -100.00000000    -100.00000000    -100.00000000    -100.00000000    -100.00000000    -100.00000000    -100.00000000    -100.00000000    -100.00000000    -100.00000000    -100.00000000    -100.00000000    -100.00000000    -100.00000000    -100.00000000    -100.00000000
      -100.00000000    -100.00000000    -100.00000000    -100.00000000    -100.00000000    -100.00000000    -100.00000000    -100.00000000    -100.00000000    -100.00000000    -100.00000000    -100.00000000    -100.00000000    -100.00000000    -100.00000000    -100.00000000    -100.00000000    -100.00000000    -100.00000000    -100.00000000
      -100.00000000    -100.00000000    -100.00000000    -100.00000000    -100.00000000    -100.00000000    -100.00000000    -100.00000000    -100.00000000    -100.00000000    -100.00000000    -100.00000000    -100.00000000    -100.00000000    -100.00000000    -100.00000000    -100.00000000    -100.00000000    -100.00000000    -100.00000000
      -100.00000000    -100.00000000    -100.00000000    -100.00000000    -100.00000000    -100.00000000    -100.00000000    -100.00000000    -100.00000000    -100.00000000    -100.00000000    -100.00000000    -100.00000000    -100.00000000    -100.00000000    -100.00000000    -100.00000000    -100.00000000    -100.00000000    -100.00000000
      -100.00000000    -100.00000000    -100.00000000    -100.00000000    -100.00000000    -100.00000000    -100.00000000    -100.00000000    -100.00000000    -100.00000000    -100.00000000    -100.00000000    -100.00000000    -100.00000000    -100.00000000    -100.00000000    -100.00000000    -100.00000000    -100.00000000    -100.00000000
      -100.00000000    -100.00000000    -100.00000000    -100.00000000    -100.00000000    -100.00000000    -100.00000000    -100.00000000    -100.00000000    -100.00000000    -100.00000000    -100.00000000    -100.00000000    -100.00000000    -100.00000000    -100.00000000    -100.00000000    -100.00000000    -100.00000000    -100.00000000
      -100.00000000    -100.00000000    -100.00000000    -100.00000000    -100.00000000    -100.00000000    -100.00000000    -100.00000000    -100.00000000    -100.00000000    -100.00000000    -100.00000000    -100.00000000    -100.00000000    -100.00000000    -100.00000000    -100.00000000    -100.00000000    -100.00000000    -100.00000000
      -100.00000000    -100.00000000    -100.00000000    -100.00000000    -100.00000000    -100.00000000    -100.00000000    -100.00000000    -100.00000000    -100.00000000    -100.00000000    -100.00000000    -100.00000000    -100.00000000    -100.00000000    -100.00000000    -100.00000000    -100.00000000    -100.00000000    -100.00000000
      -100.00000000    -100.00000000    -100.00000000    -100.00000000    -100.00000000    -100.00000000    -100.00000000    -100.00000000    -100.00000000    -100.00000000    -100.00000000    -100.00000000    -100.00000000    -100.00000000    -100.00000000    -100.00000000    -100.00000000    -100.00000000    -100.00000000    -100.00000000
      -100.00000000    -100.00000000    -100.00000000    -100.00000000    -100.00000000    -100.00000000    -100.00000000    -100.00000000    -100.00000000    -100.00000000    -100.00000000    -100.00000000    -100.00000000    -100.00000000    -100.00000000    -100.00000000    -100.00000000    -100.00000000    -100.00000000    -100.00000000
      -100.00000000    -100.00000000    -100.00000000    -100.00000000    -100.00000000    -100.00000000    -100.00000000    -100.00000000    -100.00000000    -100.00000000    -100.00000000    -100.00000000    -100.00000000    -100.00000000    -100.00000000    -100.00000000    -100.00000000    -100.00000000    -100.00000000    -100.00000000
      -100.00000000    -100.00000000    -100.00000000    -100.00000000    -100.00000000    -100.00000000    -100.00000000    -100.00000000    -100.00000000    -100.00000000    -100.00000000    -100.00000000      36.49813080    -100.00000000    -100.00000000    -100.00000000    -100.00000000    -100.00000000    -100.00000000    -100.00000000
      -100.00000000    -100.00000000    -100.00000000    -100.00000000    -100.00000000    -100.00000000    -100.00000000    -100.00000000    -100.00000000    -100.00000000    -100.00000000    -100.00000000    -100.00000000    -100.00000000    -100.00000000    -100.00000000    -100.00000000    -100.00000000    -100.00000000    -100.00000000
      -100.00000000    -100.00000000    -100.00000000    -100.00000000    -100.00000000    -100.00000000    -100.00000000    -100.00000000    -100.00000000    -100.00000000    -100.00000000    -100.00000000    -100.00000000    -100.00000000    -100.00000000    -100.00000000    -100.00000000    -100.00000000    -100.00000000    -100.00000000
      -100.00000000    -100.00000000    -100.00000000    -100.00000000    -100.00000000    -100.00000000    -100.00000000    -100.00000000    -100.00000000    -100.00000000    -100.00000000    -100.00000000    -100.00000000    -100.00000000    -100.00000000    -100.00000000    -100.00000000    -100.00000000    -100.00000000    -100.00000000
      -100.00000000    -100.00000000    -100.00000000    -100.00000000    -100.00000000    -100.00000000    -100.00000000    -100.00000000    -100.00000000    -100.00000000    -100.00000000    -100.00000000    -100.00000000    -100.00000000    -100.00000000    -100.00000000    -100.00000000    -100.00000000    -100.00000000    -100.00000000
      -100.00000000    -100.00000000    -100.00000000    -100.00000000    -100.00000000    -100.00000000    -100.00000000    -100.00000000    -100.00000000    -100.00000000    -100.00000000    -100.00000000    -100.00000000    -100.00000000    -100.00000000    -100.00000000    -100.00000000    -100.00000000    -100.00000000     -15.39999962
      -100.00000000    -100.00000000    -100.00000000    -100.00000000    -100.00000000    -100.00000000    -100.00000000    -100.00000000    -100.00000000    -100.00000000    -100.00000000    -100.00000000    -100.00000000    -100.00000000    -100.00000000    -100.00000000    -100.00000000    -100.00000000    -100.00000000    -100.00000000
      -100.00000000    -100.00000000    -100.00000000    -100.00000000    -100.00000000    -100.00000000    -100.00000000    -100.00000000    -100.00000000    -100.00000000    -100.00000000    -100.00000000    -100.00000000    -100.00000000    -100.00000000    -100.00000000    -100.00000000    -100.00000000    -100.00000000    -100.00000000
      -100.00000000    -100.00000000    -100.00000000    -100.00000000    -100.00000000    -100.00000000    -100.00000000    -100.00000000    -100.00000000    -100.00000000    -100.00000000    -100.00000000    -100.00000000    -100.00000000    -100.00000000    -100.00000000    -100.00000000    -100.00000000    -100.00000000    -100.00000000
      -100.00000000    -100.00000000    -100.00000000    -100.00000000    -100.00000000    -100.00000000    -100.00000000    -100.00000000    -100.00000000    -100.00000000    -100.00000000    -100.00000000    -100.00000000    -100.00000000    -100.00000000    -100.00000000    -100.00000000    -100.00000000    -100.00000000    -100.00000000
      -100.00000000    -100.00000000    -100.00000000    -100.00000000    -100.00000000    -100.00000000    -100.00000000    -100.00000000    -100.00000000    -100.00000000    -100.00000000    -100.00000000    -100.00000000    -100.00000000    -100.00000000    -100.00000000    -100.00000000    -100.00000000    -100.00000000     -10.69999981
      -100.00000000    -100.00000000    -100.00000000    -100.00000000    -100.00000000    -100.00000000    -100.00000000    -100.00000000    -100.00000000    -100.00000000    -100.00000000    -100.00000000    -100.00000000    -100.00000000    -100.00000000    -100.00000000    -100.00000000    -100.00000000    -100.00000000    -100.00000000
      -100.00000000    -100.00000000    -100.00000000    -100.00000000    -100.00000000    -100.00000000    -100.00000000    -100.00000000    -100.00000000    -100.00000000    -100.00000000    -100.00000000    -100.00000000    -100.00000000    -100.00000000    -100.00000000    -100.00000000    -100.00000000    -100.00000000    -100.00000000
      -100.00000000    -100.00000000    -100.00000000    -100.00000000    -100.00000000    -100.00000000    -100.00000000    -100.00000000    -100.00000000    -100.00000000    -100.00000000    -100.00000000    -100.00000000    -100.00000000    -100.00000000    -100.00000000    -100.00000000    -100.00000000    -100.00000000    -100.00000000
      -100.00000000    -100.00000000    -100.00000000    -100.00000000    -100.00000000    -100.00000000    -100.00000000    -100.00000000    -100.00000000    -100.00000000    -100.00000000    -100.00000000    -100.00000000    -100.00000000    -100.00000000    -100.00000000    -100.00000000    -100.00000000    -100.00000000    -100.00000000
      -100.00000000    -100.00000000    -100.00000000    -100.00000000    -100.00000000    -100.00000000    -100.00000000    -100.00000000    -100.00000000    -100.00000000    -100.00000000    -100.00000000    -100.00000000    -100.00000000    -100.00000000    -100.00000000    -100.00000000    -100.00000000      -2.20576811     -16.23481941
      -100.00000000    -100.00000000    -100.00000000    -100.00000000    -100.00000000    -100.00000000    -100.00000000    -100.00000000    -100.00000000    -100.00000000    -100.00000000    -100.00000000    -100.00000000    -100.00000000    -100.00000000    -100.00000000    -100.00000000    -100.00000000    -100.00000000    -100.00000000
      -100.00000000    -100.00000000    -100.00000000    -100.00000000    -100.00000000    -100.00000000    -100.00000000    -100.00000000    -100.00000000    -100.00000000    -100.00000000    -100.00000000    -100.00000000    -100.00000000    -100.00000000    -100.00000000    -100.00000000    -100.00000000    -100.00000000    -100.00000000
      -100.00000000    -100.00000000    -100.00000000    -100.00000000    -100.00000000    -100.00000000    -100.00000000    -100.00000000    -100.00000000    -100.00000000    -100.00000000    -100.00000000    -100.00000000    -100.00000000    -100.00000000    -100.00000000    -100.00000000    -100.00000000    -100.00000000    -100.00000000
      -100.00000000    -100.00000000    -100.00000000    -100.00000000    -100.00000000    -100.00000000    -100.00000000    -100.00000000    -100.00000000    -100.00000000    -100.00000000    -100.00000000    -100.00000000    -100.00000000    -100.00000000    -100.00000000    -100.00000000    -100.00000000    -100.00000000    -100.00000000
      -100.00000000    -100.00000000    -100.00000000    -100.00000000    -100.00000000    -100.00000000    -100.00000000    -100.00000000    -100.00000000    -100.00000000    -100.00000000    -100.00000000    -100.00000000    -100.00000000    -100.00000000    -100.00000000       7.43523979      -0.46776539     -12.49388981     -24.22233963
      -100.00000000    -100.00000000    -100.00000000    -100.00000000    -100.00000000    -100.00000000    -100.00000000    -100.00000000    -100.00000000    -100.00000000    -100.00000000    -100.00000000    -100.00000000    -100.00000000    -100.00000000    -100.00000000    -100.00000000    -100.00000000    -100.00000000    -100.00000000
      -100.00000000    -100.00000000    -100.00000000    -100.00000000    -100.00000000    -100.00000000    -100.00000000    -100.00000000    -100.00000000    -100.00000000    -100.00000000    -100.00000000    -100.00000000    -100.00000000    -100.00000000    -100.00000000    -100.00000000    -100.00000000    -100.00000000    -100.00000000
      -100.00000000    -100.00000000    -100.00000000    -100.00000000    -100.00000000    -100.00000000    -100.00000000    -100.00000000    -100.00000000    -100.00000000    -100.00000000    -100.00000000    -100.00000000    -100.00000000    -100.00000000    -100.00000000    -100.00000000    -100.00000000    -100.00000000    -100.00000000
      -100.00000000    -100.00000000    -100.00000000    -100.00000000    -100.00000000    -100.00000000    -100.00000000    -100.00000000    -100.00000000    -100.00000000    -100.00000000    -100.00000000    -100.00000000    -100.00000000    -100.00000000    -100.00000000    -100.00000000    -100.00000000    -100.00000000    -100.00000000
      -100.00000000    -100.00000000    -100.00000000    -100.00000000    -100.00000000    -100.00000000    -100.00000000    -100.00000000    -100.00000000    -100.00000000    -100.00000000    -100.00000000    -100.00000000    -100.00000000    -100.00000000      -5.79755878     -11.42809010     -15.76770973     -24.20119095     -33.27983856
      -100.00000000    -100.00000000    -100.00000000    -100.00000000    -100.00000000    -100.00000000    -100.00000000    -100.00000000    -100.00000000    -100.00000000    -100.00000000    -100.00000000    -100.00000000    -100.00000000    -100.00000000    -100.00000000    -100.00000000    -100.00000000    -100.00000000    -100.00000000
      -100.00000000    -100.00000000    -100.00000000    -100.00000000    -100.00000000    -100.00000000    -100.00000000    -100.00000000    -100.00000000    -100.00000000    -100.00000000    -100.00000000    -100.00000000    -100.00000000    -100.00000000    -100.00000000    -100.00000000    -100.00000000    -100.00000000    -100.00000000
      -100.00000000    -100.00000000    -100.00000000    -100.00000000    -100.00000000    -100.00000000    -100.00000000    -100.00000000    -100.00000000    -100.00000000    -100.00000000    -100.00000000    -100.00000000    -100.00000000    -100.00000000    -100.00000000    -100.00000000    -100.00000000    -100.00000000    -100.00000000
      -100.00000000    -100.00000000    -100.00000000    -100.00000000    -100.00000000    -100.00000000    -100.00000000    -100.00000000    -100.00000000    -100.00000000    -100.00000000    -100.00000000    -100.00000000    -100.00000000    -100.00000000    -100.00000000    -100.00000000    -100.00000000    -100.00000000    -100.00000000
      -100.00000000    -100.00000000    -100.00000000    -100.00000000    -100.00000000    -100.00000000    -100.00000000    -100.00000000    -100.00000000    -100.00000000    -100.00000000    -100.00000000    -100.00000000    -100.00000000      -9.59135342     -17.00300026     -20.14578056     -23.53985023     -30.99868965     -38.65077972
      -100.00000000    -100.00000000    -100.00000000    -100.00000000    -100.00000000    -100.00000000    -100.00000000    -100.00000000    -100.00000000    -100.00000000    -100.00000000    -100.00000000    -100.00000000    -100.00000000    -100.00000000    -100.00000000    -100.00000000    -100.00000000    -100.00000000    -100.00000000
      -100.00000000    -100.00000000    -100.00000000    -100.00000000    -100.00000000    -100.00000000    -100.00000000    -100.00000000    -100.00000000    -100.00000000    -100.00000000    -100.00000000    -100.00000000    -100.00000000    -100.00000000    -100.00000000    -100.00000000    -100.00000000    -100.00000000    -100.00000000