BEGIN options
END options

BEGIN packages
  DIS6  2D_Q.dis  dis
  IC6  2D_Q.ic  ic
  NPF6  2D_Q.npf  npf
  RCH6  2D_Q.rcha  rcha
  OC6  2D_Q.oc  oc
  CHD6  sea.chd  sea
  CHD6  eta.chd  eta
  CHD6  agy.chd  agy
  CHD6  Tet.chd  tet
  CHD6  Tech.chd  tech
END packages

