BEGIN options
  SAVE_FLOWS
END options

BEGIN dimensions
  MAXBOUND  96
END dimensions

BEGIN period  1
  1 10 95       0.00000000
  1 10 96       0.00000000
  1 11 96       0.00000000
  1 11 97       0.00000000
  1 11 98       0.00000000
  1 12 98       0.00000000
  1 12 99       0.00000000
  1 13 99       0.00000000
  1 14 99       0.00000000
  1 15 99       0.00000000
  1 16 98       0.00000000
  1 16 99       0.00000000
  1 17 98       0.00000000
  1 18 98       0.00000000
  1 19 98       0.00000000
  1 20 98       0.00000000
  1 21 97       0.00000000
  1 21 98       0.00000000
  1 22 97       0.00000000
  1 23 97       0.00000000
  1 24 97       0.00000000
  1 25 97       0.00000000
  1 26 96       0.00000000
  1 26 97       0.00000000
  1 27 96       0.00000000
  1 28 96       0.00000000
  1 29 96       0.00000000
  1 30 96       0.00000000
  1 31 96       0.00000000
  1 32 96       0.00000000
  1 33 96       0.00000000
  1 34 95       0.00000000
  1 34 96       0.00000000
  1 35 95       0.00000000
  1 36 95       0.00000000
  1 37 95       0.00000000
  1 38 95       0.00000000
  1 39 95       0.00000000
  1 40 95       0.00000000
  1 41 95       0.00000000
  1 42 95       0.00000000
  1 43 95       0.00000000
  1 44 95       0.00000000
  1 45 95       0.00000000
  1 46 95       0.00000000
  1 47 95       0.00000000
  1 48 95       0.00000000
  1 49 95       0.00000000
  1 50 95       0.00000000
  1 51 95       0.00000000
  1 51 96       0.00000000
  1 52 96       0.00000000
  1 53 95       0.00000000
  1 53 96       0.00000000
  1 54 95       0.00000000
  1 55 95       0.00000000
  1 56 95       0.00000000
  1 57 95       0.00000000
  1 58 95       0.00000000
  1 59 95       0.00000000
  1 60 95       0.00000000
  1 61 94       0.00000000
  1 61 95       0.00000000
  1 62 94       0.00000000
  1 62 95       0.00000000
  1 63 95       0.00000000
  1 64 95       0.00000000
  1 65 95       0.00000000
  1 66 95       0.00000000
  1 67 95       0.00000000
  1 68 95       0.00000000
  1 69 95       0.00000000
  1 70 95       0.00000000
  1 71 95       0.00000000
  1 72 95       0.00000000
  1 72 96       0.00000000
  1 73 96       0.00000000
  1 74 96       0.00000000
  1 75 96       0.00000000
  1 76 96       0.00000000
  1 77 96       0.00000000
  1 77 97       0.00000000
  1 78 97       0.00000000
  1 79 97       0.00000000
  1 80 97       0.00000000
  1 81 97       0.00000000
  1 82 97       0.00000000
  1 83 97       0.00000000
  1 84 97       0.00000000
  1 85 97       0.00000000
  1 86 97       0.00000000
  1 86 98       0.00000000
  1 87 98       0.00000000
  1 88 98       0.00000000
  1 88 99       0.00000000
  1 89 99       0.00000000
END period  1

