BEGIN options
  SAVE_FLOWS
END options

BEGIN dimensions
  MAXBOUND  113
END dimensions

BEGIN period  1
  2 175 49     132.00000000   5.00000000000e-03  130.00000000
  2 175 50     128.99896796   5.00000000000e-03  126.99896796
  2 175 51     124.91569499   5.00000000000e-03  122.91569499
  2 175 52     120.87088318   5.00000000000e-03  118.87088318
  2 175 53     116.89447448   5.00000000000e-03  114.89447448
  2 175 54     112.87872983   5.00000000000e-03  110.87872983
  2 175 55     108.54139973   5.00000000000e-03  106.54139973
  2 175 56     104.76000000   5.00000000000e-03  102.76000000
  2 174 56     103.25152201   5.00000000000e-03  101.25152201
  2 173 56     101.52631122   5.00000000000e-03   99.52631122
  2 172 56     100.36617212   5.00000000000e-03   98.36617212
  2 172 57      99.44982702   5.00000000000e-03   97.44982702
  2 171 57      97.76000226   5.00000000000e-03   95.76000226
  2 171 58      95.81000000   5.00000000000e-03   93.81000000
  2 171 59      93.49293537   5.00000000000e-03   91.49293537
  2 171 60      91.18996219   5.00000000000e-03   89.18996219
  2 171 61      88.88265061   5.00000000000e-03   86.88265061
  2 171 62      86.72248272   5.00000000000e-03   84.72248272
  2 170 62      85.57146449   5.00000000000e-03   83.57146449
  2 170 63      84.28000000   5.00000000000e-03   82.28000000
  2 170 64      82.74365543   5.00000000000e-03   80.74365543
  2 170 65      81.08779958   5.00000000000e-03   79.08779958
  2 170 66      79.91926541   5.00000000000e-03   77.91926541
  2 169 66      78.94784084   5.00000000000e-03   76.94784084
  2 169 67      77.79853732   5.00000000000e-03   75.79853732
  2 168 67      76.78000000   5.00000000000e-03   74.78000000
  2 167 68      74.83159939   5.00000000000e-03   72.83159939
  5 164 77      60.76185817   5.00000000000e-03   58.76185817
  2 162 76      59.17185904   5.00000000000e-03   57.17185904
  5 162 77      58.59208830   5.00000000000e-03   56.59208830
  2 161 77      57.64090110   5.00000000000e-03   55.64090110
  2 161 78      56.49194252   5.00000000000e-03   54.49194252
  2 160 79      54.96251160   5.00000000000e-03   52.96251160
  2 160 80      54.13200916   5.00000000000e-03   52.13200916
  2 159 80      53.24351402   5.00000000000e-03   51.24351402
  2 159 81      52.58204975   5.00000000000e-03   50.58204975
  2 158 81      51.76364118   5.00000000000e-03   49.76364118
  2 158 82      50.91777010   5.00000000000e-03   48.91777010
  2 157 82      50.23351577   5.00000000000e-03   48.23351577
  2 157 83      49.30877487   5.00000000000e-03   47.30877487
  2 156 83      48.61875140   5.00000000000e-03   46.61875140
  2 156 84      47.82000000   5.00000000000e-03   45.82000000
  2 155 84      46.64002675   5.00000000000e-03   44.64002675
  2 155 85      45.52600437   5.00000000000e-03   43.52600437
  2 155 86      44.18195173   5.00000000000e-03   42.18195173
  2 154 86      43.17131545   5.00000000000e-03   41.17131545
  2 154 87      41.88935350   5.00000000000e-03   39.88935350
  2 155 87      40.97669307   5.00000000000e-03   38.97669307
  2 154 88      39.50000000   5.00000000000e-03   37.50000000
  2 154 89      38.82963970   5.00000000000e-03   36.82963970
  2 153 89      38.11084777   5.00000000000e-03   36.11084777
  2 152 89      37.42951370   5.00000000000e-03   35.42951370
  2 152 90      36.81109392   5.00000000000e-03   34.81109392
  2 152 91      36.01685617   5.00000000000e-03   34.01685617
  2 151 91      35.49455783   5.00000000000e-03   33.49455783
  2 151 92      34.58409900   5.00000000000e-03   32.58409900
  2 151 93      33.89917178   5.00000000000e-03   31.89917178
  2 150 93      33.42022253   5.00000000000e-03   31.42022253
  2 150 94      32.42823324   5.00000000000e-03   30.42823324
  2 149 94      31.34087199   5.00000000000e-03   29.34087199
  2 149 95      30.84870538   5.00000000000e-03   28.84870538
  2 148 94      30.74798750   5.00000000000e-03   28.74798750
  2 148 95      30.24756287   5.00000000000e-03   28.24756287
  2 147 95      29.35567749   5.00000000000e-03   27.35567749
  2 146 95      28.54471806   5.00000000000e-03   26.54471806
  2 146 96      27.70000000   5.00000000000e-03   25.70000000
  2 146 97      26.37093789   5.00000000000e-03   24.37093789
  2 146 98      25.54773192   5.00000000000e-03   23.54773192
  2 147 98      24.84531201   5.00000000000e-03   22.84531201
  2 147 99      23.69224068   5.00000000000e-03   21.69224068
  2 147 100      22.57292628   5.00000000000e-03   20.57292628
  2 146 100      21.82112598   5.00000000000e-03   19.82112598
  2 146 101      21.05048706   5.00000000000e-03   19.05048706
  2 145 101      19.88000000   5.00000000000e-03   17.88000000
  2 144 101      19.84093447   5.00000000000e-03   17.84093447
  2 144 102      19.79959194   5.00000000000e-03   17.79959194
  2 143 102      19.75007148   5.00000000000e-03   17.75007148
  2 143 103      19.70000000   5.00000000000e-03   17.70000000
  2 143 104      18.86640302   5.00000000000e-03   16.86640302
  2 142 104      18.41814992   5.00000000000e-03   16.41814992
  2 143 105      18.09210884   5.00000000000e-03   16.09210884
  2 142 105      17.65083904   5.00000000000e-03   15.65083904
  2 143 106      16.96566163   5.00000000000e-03   14.96566163
  2 143 107      16.07493482   5.00000000000e-03   14.07493482
  2 143 108      15.20171771   5.00000000000e-03   13.20171771
  2 143 109      14.45103367   5.00000000000e-03   12.45103367
  2 142 109      13.99867139   5.00000000000e-03   11.99867139
  2 142 110      13.42202720   5.00000000000e-03   11.42202720
  2 142 111      12.54698444   5.00000000000e-03   10.54698444
  2 142 112      11.66841064   5.00000000000e-03    9.66841064
  2 142 113      10.77605742   5.00000000000e-03    8.77605742
  2 142 114       9.88198628   5.00000000000e-03    7.88198628
  2 142 115       9.00000000   5.00000000000e-03    7.00000000
  2 142 116       8.46412517   5.00000000000e-03    6.46412517
  2 142 117       7.92090479   5.00000000000e-03    5.92090479
  2 142 118       7.34931809   5.00000000000e-03    5.34931809
  2 142 119       6.97742188   5.00000000000e-03    4.97742188
  2 143 119       6.67864934   5.00000000000e-03    4.67864934
  2 143 120       6.18787702   5.00000000000e-03    4.18787702
  2 143 121       5.64790970   5.00000000000e-03    3.64790970
  2 143 122       5.10830213   5.00000000000e-03    3.10830213
  2 143 123       4.56258730   5.00000000000e-03    2.56258730
  2 143 124       4.00351458   5.00000000000e-03    2.00351458
  2 143 125       3.69452822   5.00000000000e-03    1.69452822
  2 142 125       3.40997524   5.00000000000e-03    1.40997524
  2 142 126       2.86208657   5.00000000000e-03    0.86208657
  2 142 127       2.35897015   5.00000000000e-03    0.35897015
  2 141 127       2.08103178   5.00000000000e-03    0.08103178
  2 141 128       1.74133475   5.00000000000e-03   -0.25866525
  2 141 129       1.19127050   5.00000000000e-03   -0.80872950
  2 141 130       0.62750152   5.00000000000e-03   -1.37249848
  2 141 131       0.31096108   5.00000000000e-03   -1.68903892
  2 140 131       0.10000000   5.00000000000e-03   -1.90000000
END period  1


