BEGIN options
  SAVE_FLOWS
END options

BEGIN dimensions
  MAXBOUND  86
END dimensions

BEGIN period  1
  1 69 73      24.44829707       0.01000000      22.44829707
  1 69 74      24.13888057       0.01000000      22.13888057
  1 69 75      22.58412376       0.01000000      20.58412376
  1 70 75      21.40360537       0.01000000      19.40360537
  1 70 76      19.29485655       0.01000000      17.29485655
  1 71 76      19.14115471       0.01000000      17.14115471
  1 72 76      19.03670864       0.01000000      17.03670864
  1 72 77      18.94694643       0.01000000      16.94694643
  1 73 77      18.85140289       0.01000000      16.85140289
  1 73 78      18.74819783       0.01000000      16.74819783
  1 73 79      18.67508161       0.01000000      16.67508161
  1 72 79      18.59427899       0.01000000      16.59427899
  1 72 80      18.45295119       0.01000000      16.45295119
  1 71 80      18.36752313       0.01000000      16.36752313
  1 71 81      18.11102746       0.01000000      16.11102746
  1 71 82      17.95402420       0.01000000      15.95402420
  1 72 82      17.85361617       0.01000000      15.85361617
  1 72 83      17.73331589       0.01000000      15.73331589
  1 73 83      17.60761577       0.01000000      15.60761577
  1 73 84      17.47842604       0.01000000      15.47842604
  1 72 84      17.38557699       0.01000000      15.38557699
  1 72 85      17.28190927       0.01000000      15.28190927
  1 72 86      16.71483052       0.01000000      14.71483052
  1 72 87      16.14965952       0.01000000      14.14965952
  1 72 88      15.58427918       0.01000000      13.58427918
  1 72 89      15.01811366       0.01000000      13.01811366
  1 72 90      14.45896013       0.01000000      12.45896013
  1 72 91      13.90136021       0.01000000      11.90136021
  1 72 92      13.47502712       0.01000000      11.47502712
  1 73 92      12.77713762       0.01000000      10.77713762
  1 73 93      12.14497569       0.01000000      10.14497569
  1 73 94      11.48720215       0.01000000       9.48720215
  1 74 94      10.50052375       0.01000000       8.50052375
  1 74 95      10.31430194       0.01000000       8.31430194
  1 75 95      10.17491807       0.01000000       8.17491807
  1 75 94      10.01149821       0.01000000       8.01149821
  1 76 94       9.90582235       0.01000000       7.90582235
  1 76 95       9.66939663       0.01000000       7.66939663
  1 76 96       9.44364459       0.01000000       7.44364459
  1 77 96       9.27662155       0.01000000       7.27662155
  1 77 97       8.95994118       0.01000000       6.95994118
  1 77 98       8.62512718       0.01000000       6.62512718
  1 77 99       8.29225292       0.01000000       6.29225292
  1 77 100       7.62041759       0.01000000       5.62041759
  1 77 101       7.38647386       0.01000000       5.38647386
  1 78 101       7.13731500       0.01000000       5.13731500
  1 78 102       6.90681797       0.01000000       4.90681797
  1 79 102       6.66328397       0.01000000       4.66328397
  1 79 103       6.35919919       0.01000000       4.35919919
  1 80 103       6.17159492       0.01000000       4.17159492
  1 80 104       5.89560978       0.01000000       3.89560978
  1 80 105       5.53306842       0.01000000       3.53306842
  1 80 106       4.83696174       0.01000000       2.83696174
  1 80 107       4.51325706       0.01000000       2.51325706
  1 80 108       4.18194860       0.01000000       2.18194860
  1 80 109       3.96297881       0.01000000       1.96297881
  1 79 109       3.73708422       0.01000000       1.73708422
  1 79 110       3.29536852       0.01000000       1.29536852
  1 78 110       3.11464099       0.01000000       1.11464099
  1 78 111       2.83991313       0.01000000       0.83991313
  1 78 112       2.65959960       0.01000000       0.65959960
  1 77 112       2.48473206       0.01000000       0.48473206
  1 77 113       2.17606387       0.01000000       0.17606387
  1 76 113       2.00344230       0.01000000       0.00344230
  1 76 114       1.79433831       0.01000000      -0.20566169
  1 76 115       1.46650221       0.01000000      -0.53349779
  1 76 116       1.23609317       0.01000000      -0.76390683
  1 75 116       1.08075843       0.01000000      -0.91924157
  1 75 117       0.84279284       0.01000000      -1.15720716
  1 75 118       0.52693218       0.01000000      -1.47306782
  1 75 119       0.09037163       0.01000000      -1.90962837
  1 74 119       0.09079914       0.01000000      -1.90920086
  1 74 120       0.09128226       0.01000000      -1.90871774
  1 74 121       0.09215160       0.01000000      -1.90784840
  1 74 122       0.09280169       0.01000000      -1.90719831
  1 73 122       0.09322956       0.01000000      -1.90677044
  1 73 123       0.09386567       0.01000000      -1.90613433
  1 73 124       0.09468680       0.01000000      -1.90531320
  1 73 125       0.09549803       0.01000000      -1.90450197
  1 73 126       0.09625232       0.01000000      -1.90374768
  1 72 126       0.09685369       0.01000000      -1.90314631
  1 72 127       0.09733975       0.01000000      -1.90266025
  1 71 127       0.09802516       0.01000000      -1.90197484
  1 71 128       0.09854851       0.01000000      -1.90145149
  1 70 128       0.09900979       0.01000000      -1.90099021
  1 70 129       0.09970024       0.01000000      -1.90029976
END period  1

