BEGIN options
  SAVE_FLOWS
END options

BEGIN dimensions
  MAXBOUND  127
END dimensions

BEGIN period  1
  1 82 142      28.00000000
  1 82 143      27.78976158
  1 82 144      27.37127037
  1 82 145      26.95715960
  1 82 146      26.60760643
  1 83 146      26.37314899
  1 83 147      25.99719755
  1 84 147      25.70669774
  1 84 148      25.43412547
  1 85 148      24.88950383
  1 86 148      24.57038979
  1 86 149      24.30510493
  1 87 149      23.88693984
  1 87 150      23.46550476
  1 87 151      23.03394693
  1 87 152      22.61587640
  1 87 153      22.16878232
  1 87 154      21.82970006
  1 86 154      21.55769934
  1 86 155      21.17569887
  1 86 156      20.75303835
  1 86 157      20.33830381
  1 86 158      19.88959990
  1 86 159      19.52565703
  1 87 159      19.19398431
  1 87 160      18.83304253
  1 88 160      18.59743673
  1 88 161      18.30454690
  1 88 162      18.08626287
  1 87 162      17.84231472
  1 87 163      17.37384623
  1 87 164      16.92835082
  1 87 165      16.50970710
  1 87 166      16.09732090
  1 87 167      15.68482446
  1 87 168      15.26645898
  1 87 169      14.84868891
  1 87 170      14.43672290
  1 87 171      14.02634465
  1 87 172      13.61686181
  1 87 173      12.86972131
  1 87 174      12.59573852
  1 88 174      12.45096519
  1 88 175      12.30085348
  1 88 176      12.01613323
  1 88 177      11.77919232
  1 89 177      11.63172890
  1 89 178      11.42326233
  1 90 178      11.10503110
  1 91 178      10.79157310
  1 92 178      10.55677167
  1 92 179      10.33718265
  1 93 179      10.16957324
  1 93 180      10.00296253
  1 93 181       9.73037062
  1 93 182       9.46841033
  1 93 183       9.20342254
  1 93 184       8.93747354
  1 94 184       8.79746488
  1 94 185       8.65877259
  1 94 186       8.39836097
  1 94 187       8.13760474
  1 94 188       7.86230913
  1 94 189       7.65034158
  1 95 189       7.45410669
  1 95 190       7.25407342
  1 96 190       7.05415582
  1 96 191       6.82615516
  1 97 191       6.66911636
  1 97 192       6.47295715
  1 97 193       6.19861767
  1 97 194       5.94326452
  1 98 194       5.80658837
  1 98 195       5.65736675
  1 98 196       5.39410569
  1 98 197       4.94260046
  1 98 198       4.88306229
  1 97 198       4.82627915
  1 97 199       4.71507947
  1 97 200       4.60196459
  1 97 201       4.46580139
  1 97 202       4.37065166
  1 96 202       4.29577805
  1 96 203       4.17125842
  1 96 204       4.10587485
  1 95 204       4.03568498
  1 95 205       3.91494169
  1 94 205       3.84884509
  1 94 206       3.76739659
  1 94 207       3.64964047
  1 93 207       3.58474642
  1 93 208       3.50703673
  1 93 209       3.37906000
  1 92 209       3.31471940
  1 92 210       3.24968337
  1 92 211       3.12506218
  1 92 212       3.00664923
  1 92 213       2.92932677
  1 91 213       2.87133799
  1 91 214       2.77469409
  1 91 215       2.65788984
  1 91 216       2.53983223
  1 91 217       2.43844437
  1 90 217       2.37920223
  1 90 218       2.30226341
  1 90 219       2.18273755
  1 90 220       2.06333964
  1 90 221       1.98906910
  1 89 221       1.92842771
  1 89 222       1.81937274
  1 89 223       1.69706808
  1 89 224       1.61895660
  1 88 224       1.56001066
  1 88 225       1.46213082
  1 88 226       1.34783591
  1 88 227       1.23466685
  1 88 228       1.12149779
  1 88 229       0.99748676
  1 88 230       0.91799729
  1 87 230       0.82367123
  1 86 230       0.73958119
  1 86 231       0.65383241
  1 85 231       0.55904525
  1 85 232       0.46678114
  1 84 232       0.38317638
  1 84 233       0.31850859
  1 84 234       0.19751398
END period  1

