BEGIN options
  SAVE_FLOWS
END options

BEGIN dimensions
  MAXBOUND  47
END dimensions

BEGIN period  1
  1 33 54      27.56930033
  1 33 55      26.48333616
  1 34 55      25.80698745
  1 34 56      25.01108297
  1 35 56      23.68929106
  1 35 57      22.52416616
  1 35 58      21.18461493
  1 35 59      19.85113928
  1 35 60      18.42765704
  1 35 61      16.94394500
  1 35 62      15.64889529
  1 35 63      14.41635307
  1 35 64      13.20105781
  1 35 65      11.18835341
  1 35 66      10.81712993
  1 36 66      10.59300620
  1 36 67      10.24790670
  1 37 67       9.77344032
  1 37 68       9.41705562
  1 38 68       9.20064393
  1 38 69       9.03341095
  1 37 69       8.82403479
  1 38 70       8.53456497
  1 38 71       8.07807002
  1 38 72       7.79281896
  1 39 72       7.53390567
  1 39 73       7.09635938
  1 39 74       6.68149888
  1 39 75       6.27614164
  1 39 76       5.81374771
  1 39 77       5.49975656
  1 38 77       5.26042936
  1 38 78       4.84217555
  1 38 79       4.59583461
  1 37 79       4.36733704
  1 37 80       3.94715406
  1 37 81       3.53250519
  1 37 82       3.24462228
  1 36 82       3.03301543
  1 36 83       2.68725366
  1 36 84       2.25838378
  1 36 85       1.83953059
  1 36 86       1.47885597
  1 35 86       1.26279940
  1 35 87       0.96553146
  1 34 87       0.62928781
  1 34 88       0.31566355
END period  1

