BEGIN options
  SAVE_FLOWS
END options

BEGIN dimensions
  MAXBOUND  98
END dimensions

BEGIN period  1
  1 66 107      27.85992395
  1 66 108      27.37736400
  1 66 109      26.69471603
  1 66 110      25.96055152
  1 67 110      25.54292814
  1 67 111      25.07709422
  1 68 111      24.37001415
  1 68 112      23.94410922
  1 69 112      23.36784419
  1 70 112      22.75501203
  1 70 113      22.20518562
  1 70 114      21.51260090
  1 70 115      20.82161384
  1 69 115      20.43630203
  1 69 116      19.97866676
  1 69 117      19.21270259
  1 69 118      18.52692500
  1 69 119      17.75409023
  1 69 120      17.24997976
  1 70 120      16.77094658
  1 70 121      16.01789545
  1 70 122      15.27790119
  1 69 122      14.87269788
  1 69 123      14.50268670
  1 69 124      13.80664076
  1 70 124      13.46566034
  1 70 125      13.12625335
  1 70 126      12.44302770
  1 70 127      11.75679936
  1 70 128      11.07839678
  1 70 129      10.40399097
  1 70 130       9.30529574
  1 70 131       9.12482974
  1 70 132       8.98276276
  1 71 132       8.89075964
  1 71 133       8.74993532
  1 71 134       8.60393248
  1 72 134       8.45564168
  1 73 134       8.26021004
  1 74 134       8.10613206
  1 74 135       7.95419863
  1 74 136       7.80970706
  1 75 136       7.72427581
  1 75 137       7.67395409
  1 74 137       7.58832592
  1 75 138       7.42642554
  1 75 139       7.25083130
  1 75 140       7.08044003
  1 75 141       6.90798486
  1 75 142       6.79299869
  1 76 142       6.66882728
  1 76 143       6.54483775
  1 77 143       6.42059047
  1 77 144       6.26867854
  1 78 144       6.17601521
  1 78 145       6.04947206
  1 78 146       5.87289041
  1 78 147       5.69927235
  1 78 148       5.52829498
  1 78 149       5.35842329
  1 78 150       5.18980322
  1 78 151       5.00508907
  1 77 151       4.89073484
  1 77 152       4.77247062
  1 77 153       4.62377147
  1 76 153       4.52333325
  1 76 154       4.36712352
  1 76 155       4.25172929
  1 75 155       4.15354165
  1 75 156       3.97468007
  1 75 157       3.86648987
  1 74 157       3.77065107
  1 74 158       3.59140764
  1 74 159       3.45449944
  1 73 159       3.36807101
  1 73 160       3.23661424
  1 73 161       3.06387339
  1 73 162       2.88926629
  1 73 163       2.73448035
  1 72 163       2.64626287
  1 72 164       2.53555782
  1 72 165       2.35761697
  1 72 166       2.18097969
  1 71 166       2.09089457
  1 71 167       1.99600755
  1 71 168       1.81567674
  1 71 169       1.64158738
  1 71 170       1.47101420
  1 71 171       1.30250374
  1 71 172       1.17091338
  1 70 172       1.07416220
  1 70 173       0.94287610
  1 69 173       0.79575374
  1 69 174       0.67799672
  1 68 174       0.54342315
  1 68 175       0.39815484
  1 67 175       0.30366039
  1 67 176       0.18618270
END period  1

