BEGIN options
  SAVE_FLOWS
END options

BEGIN dimensions
  MAXBOUND  47
END dimensions

BEGIN period  1
  1 33 54      29.73713026
  1 33 55      29.07433171
  1 34 55      28.66153453
  1 34 56      28.17576865
  1 35 56      27.36903691
  1 35 57      26.65792404
  1 35 58      25.84035322
  1 35 59      25.02649051
  1 35 60      24.15769392
  1 35 61      23.25213716
  1 35 62      22.46172704
  1 35 63      21.70946722
  1 35 64      20.96773378
  1 35 65      20.23028409
  1 35 66      19.55300080
  1 36 66      19.14409548
  1 36 67      18.51447441
  1 37 67      17.64882833
  1 37 68      16.99861785
  1 38 68      16.60378284
  1 38 69      16.29867257
  1 37 69      15.91667362
  1 38 70      15.38854682
  1 38 71      14.55568893
  1 38 72      14.03525910
  1 39 72      13.56288153
  1 39 73      12.76459477
  1 39 74      12.00769738
  1 39 75      11.26813832
  1 39 76      10.42451797
  1 39 77       9.85165292
  1 38 77       9.41500943
  1 38 78       8.65192108
  1 38 79       8.20248130
  1 37 79       7.78559606
  1 37 80       7.01898801
  1 37 81       6.26247673
  1 37 82       5.73724517
  1 36 82       5.35117643
  1 36 83       4.72034707
  1 36 84       3.93789009
  1 36 85       3.17370818
  1 36 86       2.51567090
  1 35 86       2.12148381
  1 35 87       1.57912962
  1 34 87       0.96566571
  1 34 88       0.39347005
END period  1

