BEGIN options
  SAVE_FLOWS
END options

BEGIN dimensions
  MAXBOUND  75
END dimensions

BEGIN period  1
  1 50 80      27.97656649
  1 50 81      27.50299487
  1 50 82      26.59589846
  1 50 83      25.54815051
  1 51 83      24.77742287
  1 51 84      24.22955209
  1 52 84      23.29198909
  1 53 84      22.69057175
  1 53 85      22.20296031
  1 53 86      21.43443220
  1 52 86      20.96087141
  1 52 87      20.25650900
  1 52 88      19.26390519
  1 52 89      18.32729492
  1 52 90      17.45344426
  1 53 90      16.82487850
  1 53 91      16.11088589
  1 53 92      15.60174420
  1 52 92      15.09836472
  1 52 93      14.18354711
  1 52 94      13.29177965
  1 52 95      12.48714089
  1 53 95      12.03610618
  1 53 96      11.50447887
  1 53 97      10.62154396
  1 53 98       9.28859367
  1 52 98       9.16781254
  1 53 99       9.02335056
  1 53 100       8.78929459
  1 54 100       8.64771465
  1 54 101       8.51178534
  1 55 101       8.26654562
  1 56 101       8.04644107
  1 56 102       7.85094039
  1 56 103       7.61831587
  1 56 104       7.38393514
  1 56 105       7.15133723
  1 56 106       6.99112001
  1 57 106       6.86484264
  1 57 107       6.67110632
  1 58 107       6.49701208
  1 58 108       6.30587338
  1 58 109       6.11060167
  1 59 109       5.99176809
  1 59 110       5.82082363
  1 59 111       5.58998378
  1 59 112       5.36217109
  1 59 113       5.13325735
  1 58 113       5.01307092
  1 58 114       4.85224672
  1 58 115       4.65129237
  1 57 115       4.51558240
  1 57 116       4.29241062
  1 57 117       4.14974593
  1 56 117       4.02038416
  1 56 118       3.77318447
  1 56 119       3.62766521
  1 55 119       3.50555355
  1 55 120       3.28465336
  1 55 121       3.05232143
  1 55 122       2.81748602
  1 55 123       2.69134145
  1 54 123       2.57215047
  1 54 124       2.34151148
  1 54 125       2.09856902
  1 54 126       1.96805752
  1 53 126       1.84951845
  1 53 127       1.62270987
  1 53 128       1.39458712
  1 53 129       1.15596767
  1 53 130       0.98528690
  1 52 130       0.79581730
  1 52 131       0.64006083
  1 51 131       0.48163730
  1 51 132       0.21729285
END period  1

