BEGIN options
  SAVE_FLOWS
END options

BEGIN dimensions
  MAXBOUND  77
END dimensions

BEGIN period  1
  1 50 86      27.70894354       0.01000000      25.70894354
  1 50 87      27.07342288       0.01000000      25.07342288
  1 50 88      26.28796083       0.01000000      24.28796083
  1 50 89      25.67220903       0.01000000      23.67220903
  1 51 89      25.04683600       0.01000000      23.04683600
  1 52 89      24.37629683       0.01000000      22.37629683
  1 52 90      23.90778080       0.01000000      21.90778080
  1 53 90      23.44304066       0.01000000      21.44304066
  1 53 91      22.88442370       0.01000000      20.88442370
  1 53 92      22.44231542       0.01000000      20.44231542
  1 52 92      22.05291155       0.01000000      20.05291155
  1 52 93      21.35928324       0.01000000      19.35928324
  1 52 94      20.61063300       0.01000000      18.61063300
  1 52 95      19.86625960       0.01000000      17.86625960
  1 52 96      19.23723165       0.01000000      17.23723165
  1 53 96      18.76193273       0.01000000      16.76193273
  1 53 97      18.14754269       0.01000000      16.14754269
  1 53 98      17.77540244       0.01000000      15.77540244
  1 52 98      17.38851426       0.01000000      15.38851426
  1 52 99      16.65857369       0.01000000      14.65857369
  1 52 100      15.97047252       0.01000000      13.97047252
  1 52 101      15.28617478       0.01000000      13.28617478
  1 53 101      14.93683920       0.01000000      12.93683920
  1 53 102      14.58831153       0.01000000      12.58831153
  1 53 103      13.90608069       0.01000000      11.90608069
  1 53 104      12.82053176       0.01000000      10.82053176
  1 52 104      12.60164775       0.01000000      10.60164775
  1 53 105      12.31378101       0.01000000      10.31378101
  1 53 106      11.83541481       0.01000000       9.83541481
  1 53 107      11.51048161       0.01000000       9.51048161
  1 54 107      11.13893151       0.01000000       9.13893151
  1 55 107      10.57367670       0.01000000       8.57367670
  1 56 107      10.27552198       0.01000000       8.27552198
  1 56 108      10.02046785       0.01000000       8.02046785
  1 56 109       9.55658547       0.01000000       7.55658547
  1 56 110       9.11341257       0.01000000       7.11341257
  1 56 111       8.66496827       0.01000000       6.66496827
  1 56 112       8.22440848       0.01000000       6.22440848
  1 56 113       7.94568115       0.01000000       5.94568115
  1 57 113       7.69503334       0.01000000       5.69503334
  1 57 114       7.30089967       0.01000000       5.30089967
  1 58 114       6.96688721       0.01000000       4.96688721
  1 58 115       6.58786482       0.01000000       4.58786482
  1 58 116       6.19748985       0.01000000       4.19748985
  1 59 116       5.97067419       0.01000000       3.97067419
  1 59 117       5.66101384       0.01000000       3.66101384
  1 59 118       4.90651192       0.01000000       2.90651192
  1 59 119       4.72042717       0.01000000       2.72042717
  1 59 120       4.53572423       0.01000000       2.53572423
  1 59 121       4.40716314       0.01000000       2.40716314
  1 58 121       4.27776990       0.01000000       2.27776990
  1 58 122       4.09939824       0.01000000       2.09939824
  1 57 122       3.99210265       0.01000000       1.99210265
  1 57 123       3.85912366       0.01000000       1.85912366
  1 57 124       3.67792619       0.01000000       1.67792619
  1 56 124       3.57093445       0.01000000       1.57093445
  1 56 125       3.42902546       0.01000000       1.42902546
  1 56 126       3.23645176       0.01000000       1.23645176
  1 55 126       3.13185689       0.01000000       1.13185689
  1 55 127       3.01802301       0.01000000       1.01802301
  1 55 128       2.82677337       0.01000000       0.82677337
  1 55 129       2.63709558       0.01000000       0.63709558
  1 55 130       2.44537670       0.01000000       0.44537670
  1 55 131       2.34631033       0.01000000       0.34631033
  1 54 131       2.24910396       0.01000000       0.24910396
  1 54 132       2.05726277       0.01000000       0.05726277
  1 54 133       1.85976624       0.01000000      -0.14023376
  1 54 134       1.73795869       0.01000000      -0.26204131
  1 53 134       1.64027427       0.01000000      -0.35972573
  1 53 135       1.46933947       0.01000000      -0.53066053
  1 53 136       1.28240481       0.01000000      -0.71759519
  1 53 137       1.09753474       0.01000000      -0.90246526
  1 53 138       0.91725190       0.01000000      -1.08274810
  1 52 138       0.77642123       0.01000000      -1.22357877
  1 52 139       0.64115125       0.01000000      -1.35884875
  1 51 139       0.48884531       0.01000000      -1.51115469
  1 51 140       0.31640431       0.01000000      -1.68359569
END period  1

