BEGIN options
  SAVE_FLOWS
END options

BEGIN dimensions
  MAXBOUND  149
END dimensions

BEGIN period  1
  1 99 160      27.97605907
  1 99 161      27.72061703
  1 99 162      27.26073185
  1 99 163      26.80626843
  1 99 164      26.33941538
  1 99 165      25.82940389
  1 100 165      25.53648118
  1 100 166      25.20213665
  1 101 166      24.70764277
  1 101 167      24.43570686
  1 102 167      24.05980703
  1 103 167      23.54430232
  1 103 168      23.27429170
  1 104 168      22.92003351
  1 105 168      22.57560399
  1 105 169      22.30252785
  1 105 170      21.83683334
  1 105 171      21.38303211
  1 105 172      21.06355719
  1 104 172      20.80844957
  1 104 173      20.35977829
  1 103 173      20.05129025
  1 103 174      19.78034721
  1 103 175      19.30338387
  1 103 176      18.84456090
  1 103 177      18.38716113
  1 103 178      17.88909293
  1 103 179      17.53963870
  1 104 179      17.16912371
  1 104 180      16.85455933
  1 105 180      16.58289790
  1 105 181      16.10597936
  1 105 182      15.62399833
  1 105 183      15.33327846
  1 104 183      15.06002344
  1 104 184      14.58392939
  1 104 185      14.11219749
  1 104 186      13.65366492
  1 104 187      13.20007565
  1 104 188      12.74753086
  1 104 189      12.28827675
  1 104 190      11.91875953
  1 105 190      11.69043186
  1 105 191      11.37236181
  1 105 192      10.92050688
  1 105 193      10.47037957
  1 105 194      10.02018095
  1 105 195       9.33916701
  1 104 195       9.28220585
  1 104 196       9.26283104
  1 105 196       9.19901107
  1 105 197       9.08338903
  1 105 198       9.00427774
  1 106 198       8.94423927
  1 106 199       8.83742373
  1 106 200       8.72845493
  1 107 200       8.64771465
  1 107 201       8.57570908
  1 108 201       8.47239092
  1 109 201       8.34394624
  1 110 201       8.20202467
  1 111 201       8.11153028
  1 111 202       8.03334730
  1 111 203       7.90817719
  1 111 204       7.82789580
  1 112 204       7.77065900
  1 112 205       7.72935471
  1 111 205       7.67236333
  1 111 206       7.59980579
  1 112 206       7.54149035
  1 112 207       7.44183900
  1 112 208       7.32276509
  1 112 209       7.20799950
  1 112 210       7.09447550
  1 112 211       6.99112001
  1 113 211       6.93297825
  1 113 212       6.85339410
  1 113 213       6.75184627
  1 114 213       6.66478563
  1 114 214       6.58404569
  1 115 214       6.49701208
  1 115 215       6.41160361
  1 116 215       6.34170333
  1 116 216       6.23597310
  1 116 217       6.11548959
  1 116 218       6.05141450
  1 117 218       5.99176809
  1 117 219       5.87818727
  1 117 220       5.76200131
  1 117 221       5.64730962
  1 117 222       5.53265573
  1 117 223       5.41865258
  1 117 224       5.30549378
  1 117 225       5.19252520
  1 117 226       5.07677026
  1 116 226       5.01307092
  1 116 227       4.92804982
  1 115 227       4.83890537
  1 115 228       4.76310226
  1 115 229       4.65129237
  1 114 229       4.58592677
  1 114 230       4.49477846
  1 114 231       4.40422772
  1 113 231       4.33821599
  1 113 232       4.22639889
  1 113 233       4.14974593
  1 112 233       4.08477651
  1 112 234       3.96605596
  1 112 235       3.88940375
  1 111 235       3.82503920
  1 111 236       3.70881992
  1 111 237       3.62766521
  1 110 237       3.56355062
  1 110 238       3.45847907
  1 110 239       3.34256768
  1 110 240       3.22673904
  1 110 241       3.15786516
  1 109 241       3.09995083
  1 109 242       2.99440711
  1 109 243       2.87665209
  1 109 244       2.75831996
  1 109 245       2.69134145
  1 108 245       2.63175730
  1 108 246       2.52037876
  1 108 247       2.40116511
  1 108 248       2.31450715
  1 107 248       2.25485352
  1 107 249       2.16145783
  1 107 250       2.03777582
  1 107 251       1.96805752
  1 106 251       1.90838871
  1 106 252       1.79667914
  1 106 253       1.67922175
  1 106 254       1.56412273
  1 106 255       1.45109899
  1 106 256       1.33807525
  1 106 257       1.22488010
  1 106 258       1.14900107
  1 105 258       1.08008864
  1 105 259       0.98528690
  1 104 259       0.89033054
  1 104 260       0.81638278
  1 103 260       0.72186955
  1 103 261       0.64006083
  1 102 261       0.54833663
  1 101 261       0.46576850
  1 101 262       0.39906917
  1 101 263       0.27471248
  1 101 264       0.15741963
END period  1

