BEGIN options
  SAVE_FLOWS
END options

BEGIN dimensions
  MAXBOUND  127
END dimensions

BEGIN period  1
  1 82 142      27.88282967
  1 82 143      23.84582516
  1 82 144      23.53893161
  1 82 145      23.23525037
  1 82 146      22.97891138
  1 83 146      22.80697593
  1 83 147      22.53127820
  1 84 147      22.31824501
  1 84 148      22.11835868
  1 85 148      21.71896948
  1 86 148      21.48495251
  1 86 149      21.29041028
  1 87 149      20.98375588
  1 87 150      20.67470349
  1 87 151      20.35822775
  1 87 152      20.05164269
  1 87 153      19.72377370
  1 87 154      19.47511337
  1 86 154      19.27564618
  1 86 155      18.99551250
  1 86 156      18.68556145
  1 86 157      18.38142279
  1 86 158      18.05237326
  1 86 159      17.78548182
  1 87 159      17.54225516
  1 87 160      17.27756452
  1 88 160      17.10478694
  1 88 161      16.89000106
  1 88 162      16.72992610
  1 87 162      16.55103080
  1 87 163      16.20748723
  1 87 164      15.88079060
  1 87 165      15.57378520
  1 87 166      15.27136866
  1 87 167      14.96887127
  1 87 168      14.66206992
  1 87 169      14.35570520
  1 87 170      14.05359680
  1 87 171      13.75265275
  1 87 172      13.45236533
  1 87 173      12.86972131
  1 87 174      12.59573852
  1 88 174      12.45096519
  1 88 175      12.30085348
  1 88 176      12.01613323
  1 88 177      11.77919232
  1 89 177      11.63172890
  1 89 178      11.42326233
  1 90 178      11.10503110
  1 91 178      10.79157310
  1 92 178      10.55677167
  1 92 179      10.33718265
  1 93 179      10.16957324
  1 93 180      10.00296253
  1 93 181       9.73037062
  1 93 182       9.46841033
  1 93 183       9.20342254
  1 93 184       8.93747354
  1 94 184       8.79746488
  1 94 185       8.65877259
  1 94 186       8.39836097
  1 94 187       8.13760474
  1 94 188       7.86230913
  1 94 189       7.65034158
  1 95 189       7.45410669
  1 95 190       7.25407342
  1 96 190       7.05415582
  1 96 191       6.82615516
  1 97 191       6.66911636
  1 97 192       6.47295715
  1 97 193       6.19861767
  1 97 194       5.94326452
  1 98 194       5.80658837
  1 98 195       5.65736675
  1 98 196       5.39410569
  1 98 197       4.94260046
  1 98 198       4.88306229
  1 97 198       4.82627915
  1 97 199       4.71507947
  1 97 200       4.60196459
  1 97 201       4.46580139
  1 97 202       4.37065166
  1 96 202       4.29577805
  1 96 203       4.17125842
  1 96 204       4.10587485
  1 95 204       4.03568498
  1 95 205       3.91494169
  1 94 205       3.84884509
  1 94 206       3.76739659
  1 94 207       3.64964047
  1 93 207       3.58474642
  1 93 208       3.50703673
  1 93 209       3.37906000
  1 92 209       3.31471940
  1 92 210       3.24968337
  1 92 211       3.12506218
  1 92 212       3.00664923
  1 92 213       2.92932677
  1 91 213       2.87133799
  1 91 214       2.77469409
  1 91 215       2.65788984
  1 91 216       2.53983223
  1 91 217       2.43844437
  1 90 217       2.37920223
  1 90 218       2.30226341
  1 90 219       2.18273755
  1 90 220       2.06333964
  1 90 221       1.98906910
  1 89 221       1.92842771
  1 89 222       1.81937274
  1 89 223       1.69706808
  1 89 224       1.61895660
  1 88 224       1.56001066
  1 88 225       1.46213082
  1 88 226       1.34783591
  1 88 227       1.23466685
  1 88 228       1.12149779
  1 88 229       0.99748676
  1 88 230       0.91799729
  1 87 230       0.82367123
  1 86 230       0.73958119
  1 86 231       0.65383241
  1 85 231       0.55904525
  1 85 232       0.46678114
  1 84 232       0.38317638
  1 84 233       0.31850859
  1 84 234       0.19751398
END period  1

