BEGIN options
  SAVE_FLOWS
END options

BEGIN dimensions
  MAXBOUND  75
END dimensions

BEGIN period  1
  1 50 80      29.98699255
  1 50 81      29.72412281
  1 50 82      29.22061250
  1 50 83      28.63902945
  1 51 83      28.21121461
  1 51 84      27.90710296
  1 52 84      27.38668128
  1 53 84      27.05284705
  1 53 85      26.78218410
  1 53 86      26.35559017
  1 52 86      26.09272644
  1 52 87      25.70174955
  1 52 88      25.15077587
  1 52 89      24.63088303
  1 52 90      24.14582674
  1 53 90      23.79692299
  1 53 91      23.40060057
  1 53 92      23.11798663
  1 52 92      22.83857118
  1 52 93      22.33077499
  1 52 94      21.83577346
  1 52 95      21.38913526
  1 53 95      21.13877529
  1 53 96      20.84368005
  1 53 97      20.35358129
  1 53 98      19.88947938
  1 52 98      19.62803851
  1 53 99      19.31533847
  1 53 100      18.80870475
  1 54 100      18.50224313
  1 54 101      18.20801279
  1 55 101      17.67717089
  1 56 101      17.20073619
  1 56 102      16.77755862
  1 56 103      16.27402341
  1 56 104      15.76668671
  1 56 105      15.26320907
  1 56 106      14.91640551
  1 57 106      14.64306758
  1 57 107      14.22370913
  1 58 107      13.84686759
  1 58 108      13.43313189
  1 58 109      13.01044994
  1 59 109      12.75322471
  1 59 110      12.38320113
  1 59 111      11.88352898
  1 59 112      11.39040936
  1 59 113      10.89490643
  1 58 113      10.63475284
  1 58 114      10.28663542
  1 58 115       9.85165292
  1 57 115       9.55789735
  1 57 116       9.07482337
  1 57 117       8.76601371
  1 56 117       8.48599934
  1 56 118       7.95091494
  1 56 119       7.63592635
  1 55 119       7.37160545
  1 55 120       6.89344851
  1 55 121       6.39054662
  1 55 122       5.88222574
  1 55 123       5.60917527
  1 54 123       5.35117643
  1 54 124       4.85193904
  1 54 125       4.32606978
  1 54 126       4.04356671
  1 53 126       3.78697899
  1 53 127       3.29603285
  1 53 128       2.80224208
  1 53 129       2.28573032
  1 53 130       1.91627753
  1 52 130       1.50615474
  1 52 131       1.16900683
  1 51 131       0.82608584
  1 51 132       0.25389017
END period  1

