BEGIN options
  SAVE_FLOWS
END options

BEGIN dimensions
  MAXBOUND  79
END dimensions

BEGIN period  1
  1 50 88      29.78066865
  1 50 89      29.33131150
  1 50 90      28.80180399
  1 50 91      28.39712735
  1 51 91      27.98437038
  1 52 91      27.51671273
  1 52 92      27.19693544
  1 53 92      26.88972837
  1 53 93      26.51362170
  1 53 94      26.21186855
  1 52 94      25.95392619
  1 52 95      25.49580778
  1 52 96      24.99201013
  1 52 97      24.50213393
  1 52 98      24.05261606
  1 53 98      23.72654404
  1 53 99      23.35042102
  1 53 100      23.06460060
  1 52 100      22.79944093
  1 52 101      22.34728173
  1 52 102      21.88612723
  1 52 103      21.42486351
  1 52 104      21.14023640
  1 53 104      20.91107671
  1 53 105      20.50663494
  1 53 106      20.05170344
  1 53 107      19.61277471
  1 52 107      19.35924087
  1 53 108      19.07093689
  1 53 109      18.63411465
  1 54 109      18.31788022
  1 54 110      18.02031160
  1 55 110      17.66618312
  1 55 109      17.35549657
  1 56 110      17.04984953
  1 56 111      16.63712225
  1 56 112      16.17001715
  1 56 113      15.69756100
  1 56 114      15.22778643
  1 56 115      14.82115983
  1 57 115      14.58823806
  1 57 116      14.21112580
  1 57 117      13.84182309
  1 58 117      13.52484099
  1 58 118      13.01124253
  1 58 119      12.72252110
  1 59 119      12.48293202
  1 59 120      12.05748317
  1 59 121      11.59604087
  1 59 122      11.13845891
  1 59 123      10.67055326
  1 59 124      10.42724375
  1 58 124      10.10786552
  1 58 125       9.65824662
  1 57 125       9.38749439
  1 57 126       8.98151616
  1 57 127       8.60767351
  1 56 127       8.34547094
  1 56 128       7.93034952
  1 56 129       7.50822171
  1 55 129       7.25042500
  1 55 130       6.92208711
  1 55 131       6.45534255
  1 55 132       5.98690296
  1 55 133       5.53333429
  1 54 133       5.29543499
  1 54 134       5.03563337
  1 54 135       4.55596832
  1 54 136       4.06820719
  1 54 137       3.77716632
  1 53 137       3.53691294
  1 53 138       3.10604002
  1 53 139       2.64514616
  1 53 140       2.18993363
  1 53 141       1.73044774
  1 52 141       1.39479202
  1 52 142       1.05381889
  1 51 142       0.66806162
  1 51 143       0.25956112
END period  1

