BEGIN options
  SAVE_FLOWS
END options

BEGIN dimensions
  MAXBOUND  47
END dimensions

BEGIN period  1
  1 33 54      27.51744005
  1 33 55      26.30071559
  1 34 55      25.54292814
  1 34 56      24.65118929
  1 35 56      23.17024122
  1 35 57      21.86482434
  1 35 58      20.36397856
  1 35 59      18.86993991
  1 35 60      17.27505704
  1 35 61      15.61269214
  1 35 62      14.16170629
  1 35 63      12.78075440
  1 35 64      11.41912617
  1 35 65       9.22407468
  1 35 66       8.91861267
  1 36 66       8.73419199
  1 36 67       8.45022615
  1 37 67       8.05981050
  1 37 68       7.76655861
  1 38 68       7.58848380
  1 38 69       7.45087580
  1 37 69       7.27859019
  1 38 70       7.04039934
  1 38 71       6.66477152
  1 38 72       6.43005210
  1 39 72       6.21700476
  1 39 73       5.85696888
  1 39 74       5.51560006
  1 39 75       5.18205100
  1 39 76       4.80156920
  1 39 77       4.54320093
  1 38 77       4.34627004
  1 38 78       4.00210902
  1 38 79       3.79940687
  1 37 79       3.61138716
  1 37 80       3.26563873
  1 37 81       2.92444404
  1 37 82       2.68755899
  1 36 82       2.51343785
  1 36 83       2.22892706
  1 36 84       1.87603058
  1 36 85       1.53137636
  1 36 86       1.23459450
  1 35 86       1.05681191
  1 35 87       0.81220436
  1 34 87       0.53552557
  1 34 88       0.27745920
END period  1

