BEGIN options
  SAVE_FLOWS
END options

BEGIN dimensions
  MAXBOUND  86
END dimensions

BEGIN period  1
  1 69 73      25.44829707       0.00500000      23.44829707
  1 69 74      25.13888057       0.00500000      23.13888057
  1 69 75      23.58412376       0.00500000      21.58412376
  1 70 75      22.40360537       0.00500000      20.40360537
  1 70 76      20.29485655       0.00500000      18.29485655
  1 71 76      20.14115471       0.00500000      18.14115471
  1 72 76      20.03670864       0.00500000      18.03670864
  1 72 77      19.94694643       0.00500000      17.94694643
  1 73 77      19.85140289       0.00500000      17.85140289
  1 73 78      19.74819783       0.00500000      17.74819783
  1 73 79      19.67508161       0.00500000      17.67508161
  1 72 79      19.59427899       0.00500000      17.59427899
  1 72 80      19.45295119       0.00500000      17.45295119
  1 71 80      19.36752313       0.00500000      17.36752313
  1 71 81      19.11102746       0.00500000      17.11102746
  1 71 82      18.95402420       0.00500000      16.95402420
  1 72 82      18.85361617       0.00500000      16.85361617
  1 72 83      18.73331589       0.00500000      16.73331589
  1 73 83      18.60761577       0.00500000      16.60761577
  1 73 84      18.47842604       0.00500000      16.47842604
  1 72 84      18.38557699       0.00500000      16.38557699
  1 72 85      18.28190927       0.00500000      16.28190927
  1 72 86      17.71483052       0.00500000      15.71483052
  1 72 87      17.14965952       0.00500000      15.14965952
  1 72 88      16.58427918       0.00500000      14.58427918
  1 72 89      16.01811366       0.00500000      14.01811366
  1 72 90      15.45896013       0.00500000      13.45896013
  1 72 91      14.90136021       0.00500000      12.90136021
  1 72 92      14.47502712       0.00500000      12.47502712
  1 73 92      13.77713762       0.00500000      11.77713762
  1 73 93      13.14497569       0.00500000      11.14497569
  1 73 94      12.48720215       0.00500000      10.48720215
  1 74 94      11.50052375       0.00500000       9.50052375
  1 74 95      11.31430194       0.00500000       9.31430194
  1 75 95      11.17491807       0.00500000       9.17491807
  1 75 94      11.01149821       0.00500000       9.01149821
  1 76 94      10.90582235       0.00500000       8.90582235
  1 76 95      10.66939663       0.00500000       8.66939663
  1 76 96      10.44364459       0.00500000       8.44364459
  1 77 96      10.27662155       0.00500000       8.27662155
  1 77 97       9.95994118       0.00500000       7.95994118
  1 77 98       9.62512718       0.00500000       7.62512718
  1 77 99       9.29225292       0.00500000       7.29225292
  1 77 100       8.62041759       0.00500000       6.62041759
  1 77 101       8.38647386       0.00500000       6.38647386
  1 78 101       8.13731500       0.00500000       6.13731500
  1 78 102       7.90681797       0.00500000       5.90681797
  1 79 102       7.66328397       0.00500000       5.66328397
  1 79 103       7.35919919       0.00500000       5.35919919
  1 80 103       7.17159492       0.00500000       5.17159492
  1 80 104       6.89560978       0.00500000       4.89560978
  1 80 105       6.53306842       0.00500000       4.53306842
  1 80 106       5.83696174       0.00500000       3.83696174
  1 80 107       5.51325706       0.00500000       3.51325706
  1 80 108       5.18194860       0.00500000       3.18194860
  1 80 109       4.96297881       0.00500000       2.96297881
  1 79 109       4.73708422       0.00500000       2.73708422
  1 79 110       4.29536852       0.00500000       2.29536852
  1 78 110       4.11464099       0.00500000       2.11464099
  1 78 111       3.83991313       0.00500000       1.83991313
  1 78 112       3.65959960       0.00500000       1.65959960
  1 77 112       3.48473206       0.00500000       1.48473206
  1 77 113       3.17606387       0.00500000       1.17606387
  1 76 113       3.00344230       0.00500000       1.00344230
  1 76 114       2.79433831       0.00500000       0.79433831
  1 76 115       2.46650221       0.00500000       0.46650221
  1 76 116       2.23609317       0.00500000       0.23609317
  1 75 116       2.08075843       0.00500000       0.08075843
  1 75 117       1.84279284       0.00500000      -0.15720716
  1 75 118       1.52693218       0.00500000      -0.47306782
  1 75 119       1.05320831       0.00500000      -0.94679169
  1 74 119       1.01088548       0.00500000      -0.98911452
  1 74 120       0.96305662       0.00500000      -1.03694338
  1 74 121       0.87699149       0.00500000      -1.12300851
  1 74 122       0.81263308       0.00500000      -1.18736692
  1 73 122       0.77027384       0.00500000      -1.22972616
  1 73 123       0.70729847       0.00500000      -1.29270153
  1 73 124       0.62600632       0.00500000      -1.37399368
  1 73 125       0.54569523       0.00500000      -1.45430477
  1 73 126       0.47102048       0.00500000      -1.52897952
  1 72 126       0.41148468       0.00500000      -1.58851532
  1 72 127       0.36336437       0.00500000      -1.63663563
  1 71 127       0.29550961       0.00500000      -1.70449039
  1 71 128       0.24369796       0.00500000      -1.75630204
  1 70 128       0.19803035       0.00500000      -1.80196965
  1 70 129       0.12967641       0.00500000      -1.87032359
END period  1

