BEGIN options
  SAVE_FLOWS
END options

BEGIN dimensions
  MAXBOUND  77
END dimensions

BEGIN period  1
  1 50 86      23.78655860
  1 50 87      23.32051011
  1 50 88      22.74450461
  1 50 89      22.29295329
  1 51 89      21.83434640
  1 52 89      21.34261768
  1 52 90      20.99903926
  1 53 90      20.65822982
  1 53 91      20.24857738
  1 53 92      19.92436464
  1 52 92      19.63880180
  1 52 93      19.13014105
  1 52 94      18.58113087
  1 52 95      18.03525704
  1 52 96      17.57396988
  1 53 96      17.22541734
  1 53 97      16.77486464
  1 53 98      16.50196179
  1 52 98      16.21824379
  1 52 99      15.68295404
  1 52 100      15.17834651
  1 52 101      14.67652817
  1 53 101      14.42034874
  1 53 102      14.16476179
  1 53 103      13.66445917
  1 53 104      12.82053176
  1 52 104      12.60164775
  1 53 105      12.31378101
  1 53 106      11.83541481
  1 53 107      11.51048161
  1 54 107      11.13893151
  1 55 107      10.57367670
  1 56 107      10.27552198
  1 56 108      10.02046785
  1 56 109       9.55658547
  1 56 110       9.11341257
  1 56 111       8.66496827
  1 56 112       8.22440848
  1 56 113       7.94568115
  1 57 113       7.69503334
  1 57 114       7.30089967
  1 58 114       6.96688721
  1 58 115       6.58786482
  1 58 116       6.19748985
  1 59 116       5.97067419
  1 59 117       5.66101384
  1 59 118       4.90651192
  1 59 119       4.72042717
  1 59 120       4.53572423
  1 59 121       4.40716314
  1 58 121       4.27776990
  1 58 122       4.09939824
  1 57 122       3.99210265
  1 57 123       3.85912366
  1 57 124       3.67792619
  1 56 124       3.57093445
  1 56 125       3.42902546
  1 56 126       3.23645176
  1 55 126       3.13185689
  1 55 127       3.01802301
  1 55 128       2.82677337
  1 55 129       2.63709558
  1 55 130       2.44537670
  1 55 131       2.34631033
  1 54 131       2.24910396
  1 54 132       2.05726277
  1 54 133       1.85976624
  1 54 134       1.73795869
  1 53 134       1.64027427
  1 53 135       1.46933947
  1 53 136       1.28240481
  1 53 137       1.09753474
  1 53 138       0.91725190
  1 52 138       0.77642123
  1 52 139       0.64115125
  1 51 139       0.48884531
  1 51 140       0.31640431
END period  1

