BEGIN options
  SAVE_FLOWS
END options

BEGIN dimensions
  MAXBOUND  77
END dimensions

BEGIN period  1
  1 50 86      27.63889595
  1 50 87      26.85042665
  1 50 88      25.87593007
  1 50 89      25.11198734
  1 51 89      24.33610787
  1 52 89      23.50419227
  1 52 90      22.92292005
  1 53 90      22.34633244
  1 53 91      21.65327500
  1 53 92      21.10476600
  1 52 92      20.62164559
  1 52 93      19.76108408
  1 52 94      18.83225868
  1 52 95      17.90873941
  1 52 96      17.12832541
  1 53 96      16.53863788
  1 53 97      15.77638463
  1 53 98      15.31468262
  1 52 98      14.83468335
  1 52 99      13.92907043
  1 52 100      13.07536624
  1 52 101      12.22638085
  1 53 101      11.79297183
  1 53 102      11.36056518
  1 53 103      10.51414411
  1 53 104       9.30243473
  1 52 104       9.19563791
  1 53 105       9.05518338
  1 53 106       8.82178127
  1 53 107       8.66324145
  1 54 107       8.48195654
  1 55 107       8.20616017
  1 56 107       8.06068597
  1 56 108       7.93624120
  1 56 109       7.70990597
  1 56 110       7.49367522
  1 56 111       7.27487246
  1 56 112       7.05991667
  1 56 113       6.92392140
  1 57 113       6.80162654
  1 57 114       6.60932276
  1 58 114       6.44635303
  1 58 115       6.26142227
  1 58 116       6.07095242
  1 59 116       5.96028563
  1 59 117       5.80919766
  1 59 118       5.59352979
  1 59 119       5.38084705
  1 59 120       5.16974363
  1 59 121       5.02280668
  1 58 121       4.87491864
  1 58 122       4.67105147
  1 57 122       4.54841961
  1 57 123       4.39643329
  1 57 124       4.18933639
  1 56 124       4.06705181
  1 56 125       3.90485908
  1 56 126       3.68475989
  1 55 126       3.56521478
  1 55 127       3.43511008
  1 55 128       3.21652420
  1 55 129       2.99973485
  1 55 130       2.78061267
  1 55 131       2.66738627
  1 54 131       2.55628573
  1 54 132       2.33702375
  1 54 133       2.11129810
  1 54 134       1.97208001
  1 53 134       1.86043308
  1 53 135       1.66506575
  1 53 136       1.45141161
  1 53 137       1.24011718
  1 53 138       1.03406565
  1 52 138       0.87310537
  1 52 139       0.71850060
  1 51 139       0.54442484
  1 51 140       0.34733602
END period  1

