BEGIN options
  SAVE_FLOWS
END options

BEGIN dimensions
  MAXBOUND  98
END dimensions

BEGIN period  1
  1 66 107      27.88250472
  1 66 108      27.47773520
  1 66 109      26.90513257
  1 66 110      26.28931806
  1 67 110      25.93901710
  1 67 111      25.54827731
  1 68 111      24.95518113
  1 68 112      24.59793363
  1 69 112      24.11456463
  1 70 112      23.60052326
  1 70 113      23.13933087
  1 70 114      22.55839334
  1 70 115      21.97879592
  1 69 115      21.65559778
  1 69 116      21.27173499
  1 69 117      20.62924704
  1 69 118      20.05401930
  1 69 119      19.40576832
  1 69 120      18.98292231
  1 70 120      18.58111102
  1 70 121      17.94945449
  1 70 122      17.32875000
  1 69 122      16.98886695
  1 69 123      16.67850293
  1 69 124      16.09466213
  1 70 124      15.80864900
  1 70 125      15.52395566
  1 70 126      14.95086848
  1 70 127      14.37526265
  1 70 128      13.80622105
  1 70 129      13.24053192
  1 70 130      12.27794238
  1 70 131      12.03919886
  1 70 132      11.85125450
  1 71 132      11.72954102
  1 71 133      11.54324058
  1 71 134      11.35008936
  1 72 134      11.15391133
  1 73 134      10.89536937
  1 74 134      10.69153530
  1 74 135      10.49053834
  1 74 136      10.29938641
  1 75 136      10.18636703
  1 75 137      10.11979502
  1 74 137      10.00651513
  1 75 138       9.79233261
  1 75 139       9.56003408
  1 75 140       9.33461873
  1 75 141       9.10647298
  1 75 142       8.95435457
  1 76 142       8.79008474
  1 76 143       8.62605554
  1 77 143       8.46168535
  1 77 144       8.26071682
  1 78 144       8.13812991
  1 78 145       7.97072246
  1 78 146       7.73711767
  1 78 147       7.50743349
  1 78 148       7.28124276
  1 78 149       7.05651477
  1 78 150       6.83344258
  1 78 151       6.58907909
  1 77 151       6.43779669
  1 77 152       6.28134164
  1 77 153       6.08462340
  1 76 153       5.95175087
  1 76 154       5.74509667
  1 76 155       5.59243843
  1 75 155       5.46254326
  1 75 156       5.22592228
  1 75 157       5.08279445
  1 74 157       4.95600663
  1 74 158       4.71888050
  1 74 159       4.53776083
  1 73 159       4.42342225
  1 73 160       4.24951442
  1 73 161       4.02099074
  1 73 162       3.78999814
  1 73 163       3.58522750
  1 72 163       3.46852214
  1 72 164       3.32206734
  1 72 165       3.08666443
  1 72 166       2.85298605
  1 71 166       2.73380993
  1 71 167       2.60828125
  1 71 168       2.36971660
  1 71 169       2.13940892
  1 71 170       1.91375291
  1 71 171       1.69082572
  1 71 172       1.51674117
  1 70 172       1.38874634
  1 70 173       1.21506429
  1 69 173       1.02043202
  1 69 174       0.86464798
  1 68 174       0.68661685
  1 68 175       0.49443735
  1 67 175       0.36942801
  1 67 176       0.21401350
END period  1

