BEGIN options
  SAVE_FLOWS
END options

BEGIN dimensions
  MAXBOUND  98
END dimensions

BEGIN period  1
  1 66 107      29.92369496
  1 66 108      29.66082523
  1 66 109      29.28895953
  1 66 110      28.88903071
  1 67 110      28.66153453
  1 67 111      28.40777613
  1 68 111      28.02260129
  1 68 112      27.79059381
  1 69 112      27.47667916
  1 70 112      27.14284493
  1 70 113      26.84333246
  1 70 114      26.46605382
  1 70 115      26.08964548
  1 69 115      25.87975071
  1 69 116      25.63045844
  1 69 117      25.21320707
  1 69 118      24.83963655
  1 69 119      24.41864248
  1 69 120      24.14403332
  1 70 120      23.88308476
  1 70 121      23.47286764
  1 70 122      23.06976312
  1 69 122      22.84903264
  1 69 123      22.64747273
  1 69 124      22.26830862
  1 70 124      22.08256293
  1 70 125      21.89767434
  1 70 126      21.52549396
  1 70 127      21.15167789
  1 70 128      20.78212483
  1 70 129      20.41474897
  1 70 130      20.04685234
  1 70 131      19.65384212
  1 70 132      19.34445545
  1 71 132      19.14409548
  1 71 133      18.83741500
  1 71 134      18.51945700
  1 72 134      18.19651641
  1 73 134      17.77091475
  1 74 134      17.43537108
  1 74 135      17.10449774
  1 74 136      16.78983092
  1 75 136      16.60378284
  1 75 137      16.49419459
  1 74 137      16.30771767
  1 75 138      15.95513878
  1 75 139      15.57273804
  1 75 140      15.20166810
  1 75 141      14.82610349
  1 75 142      14.57569211
  1 76 142      14.30527755
  1 76 143      14.03525910
  1 77 143      13.76467931
  1 77 144      13.43385279
  1 78 144      13.23205501
  1 78 145      12.95647542
  1 78 146      12.57192436
  1 78 147      12.19382724
  1 78 148      11.82148091
  1 78 149      11.45154249
  1 78 150      11.08432976
  1 78 151      10.68206814
  1 77 151      10.43303298
  1 77 152      10.17548280
  1 77 153       9.85165292
  1 76 153       9.63292337
  1 76 154       9.29273730
  1 76 155       9.04143728
  1 75 155       8.82760894
  1 75 156       8.43809274
  1 75 157       8.20248130
  1 74 157       7.99376815
  1 74 158       7.60342040
  1 74 159       7.30526827
  1 73 159       7.11704857
  1 73 160       6.83076831
  1 73 161       6.45458157
  1 73 162       6.07433058
  1 73 163       5.73724517
  1 72 163       5.54512938
  1 72 164       5.30404121
  1 72 165       4.91653014
  1 72 166       4.53185794
  1 71 166       4.33567488
  1 71 167       4.12903447
  1 71 168       3.73631867
  1 71 169       3.35719519
  1 71 170       2.98572908
  1 71 171       2.61875507
  1 71 172       2.33218389
  1 70 172       2.12148381
  1 70 173       1.83557521
  1 69 173       1.51517918
  1 69 174       1.25873359
  1 68 174       0.96566571
  1 68 175       0.64930733
  1 67 175       0.44352185
  1 67 176       0.18768456
END period  1

