BEGIN options
  SAVE_FLOWS
END options

BEGIN dimensions
  MAXBOUND  77
END dimensions

BEGIN period  1
  1 50 86      22.78655860
  1 50 87      22.32051011
  1 50 88      21.74450461
  1 50 89      21.29295329
  1 51 89      20.83434640
  1 52 89      20.34261768
  1 52 90      19.99903926
  1 53 90      19.65822982
  1 53 91      19.24857738
  1 53 92      18.92436464
  1 52 92      18.63880180
  1 52 93      18.13014105
  1 52 94      17.58113087
  1 52 95      17.03525704
  1 52 96      16.57396988
  1 53 96      16.22541734
  1 53 97      15.77486464
  1 53 98      15.50196179
  1 52 98      15.21824379
  1 52 99      14.68295404
  1 52 100      14.17834651
  1 52 101      13.67652817
  1 53 101      13.42034874
  1 53 102      13.16476179
  1 53 103      12.66445917
  1 53 104      11.82053176
  1 52 104      11.60164775
  1 53 105      11.31378101
  1 53 106      10.83541481
  1 53 107      10.51048161
  1 54 107      10.13893151
  1 55 107       9.57367670
  1 56 107       9.27552198
  1 56 108       9.02046785
  1 56 109       8.55658547
  1 56 110       8.11341257
  1 56 111       7.66496827
  1 56 112       7.22440848
  1 56 113       6.94568115
  1 57 113       6.69503334
  1 57 114       6.30089967
  1 58 114       5.96688721
  1 58 115       5.58786482
  1 58 116       5.19748985
  1 59 116       4.97067419
  1 59 117       4.66101384
  1 59 118       3.92559112
  1 59 119       3.77748285
  1 59 120       3.63047439
  1 59 121       3.52815026
  1 58 121       3.42516380
  1 58 122       3.28319452
  1 57 122       3.19779599
  1 57 123       3.09195557
  1 57 124       2.94773717
  1 56 124       2.86258048
  1 56 125       2.74963251
  1 56 126       2.59635956
  1 55 126       2.51311059
  1 55 127       2.42250811
  1 55 128       2.27028901
  1 55 129       2.11932097
  1 55 130       1.96672839
  1 55 131       1.88787965
  1 54 131       1.81051132
  1 54 132       1.65782139
  1 54 133       1.50063028
  1 54 134       1.40368141
  1 53 134       1.32593258
  1 53 135       1.18988244
  1 53 136       1.04109770
  1 53 137       0.89395622
  1 53 138       0.75046580
  1 52 138       0.63837608
  1 52 139       0.53071222
  1 51 139       0.40948912
  1 51 140       0.27224017
END period  1

