BEGIN options
  SAVE_FLOWS
END options

BEGIN dimensions
  MAXBOUND  47
END dimensions

BEGIN period  1
  1 33 54      27.59523048
  1 33 55      26.57464645
  1 34 55      25.93901710
  1 34 56      25.19102981
  1 35 56      23.94881598
  1 35 57      22.85383707
  1 35 58      21.59493312
  1 35 59      20.34173896
  1 35 60      19.00395704
  1 35 61      17.60957143
  1 35 62      16.39248980
  1 35 63      15.23415240
  1 35 64      14.09202362
  1 35 65      12.17049277
  1 35 66      11.76638856
  1 36 66      11.52241330
  1 36 67      11.14674697
  1 37 67      10.63025523
  1 37 68      10.24230413
  1 38 68      10.00672399
  1 38 69       9.82467853
  1 37 69       9.59675709
  1 38 70       9.28164779
  1 38 71       8.78471926
  1 38 72       8.47420240
  1 39 72       8.19235613
  1 39 73       7.71605463
  1 39 74       7.26444830
  1 39 75       6.82318696
  1 39 76       6.31983697
  1 39 77       5.97803438
  1 38 77       5.71750902
  1 38 78       5.26220881
  1 38 79       4.99404849
  1 37 79       4.74531197
  1 37 80       4.28791173
  1 37 81       3.83653577
  1 37 82       3.52315392
  1 36 82       3.29280422
  1 36 83       2.91641696
  1 36 84       2.44956037
  1 36 85       1.99360770
  1 36 86       1.60098670
  1 35 86       1.36579315
  1 35 87       1.04219500
  1 34 87       0.67616892
  1 34 88       0.33476573
END period  1

