BEGIN options
  SAVE_FLOWS
END options

BEGIN dimensions
  MAXBOUND  48
END dimensions

BEGIN period  1
  1 117 6     178.18748053       0.01000000     176.18748053
  1 117 7     176.01157043       0.01000000     174.01157043
  1 116 7     173.82815656       0.01000000     171.82815656
  1 116 8     172.88229626       0.01000000     170.88229626
  1 116 9     171.33164082       0.01000000     169.33164082
  1 116 10     167.49509280       0.01000000     165.49509280
  1 116 11     164.38316950       0.01000000     162.38316950
  1 116 12     162.51074101       0.01000000     160.51074101
  1 115 12     158.11695393       0.01000000     156.11695393
  1 115 13     156.82977130       0.01000000     154.82977130
  1 114 13     155.73437124       0.01000000     153.73437124
  1 114 14     153.56678480       0.01000000     151.56678480
  1 113 14     152.68784576       0.01000000     150.68784576
  1 113 15     151.54951345       0.01000000     149.54951345
  1 112 15     150.75300806       0.01000000     148.75300806
  1 112 16     147.76445958       0.01000000     145.76445958
  1 112 17     146.18897543       0.01000000     144.18897543
  1 111 17     143.28898851       0.01000000     141.28898851
  1 111 18     141.81303484       0.01000000     139.81303484
  1 110 18     140.91868381       0.01000000     138.91868381
  1 110 19     138.16830732       0.01000000     136.16830732
  1 110 20     136.84249535       0.01000000     134.84249535
  1 109 20     135.96912644       0.01000000     133.96912644
  1 109 21     133.24554601       0.01000000     131.24554601
  1 108 21     132.39587823       0.01000000     130.39587823
  1 108 22     131.48713363       0.01000000     129.48713363
  1 108 23     130.39284214       0.01000000     128.39284214
  1 107 23     128.29805588       0.01000000     126.29805588
  1 107 24     126.66606391       0.01000000     124.66606391
  1 107 25     123.17133274       0.01000000     121.17133274
  1 107 26     122.11602461       0.01000000     120.11602461
  1 106 26     121.27382156       0.01000000     119.27382156
  1 106 27     117.74591529       0.01000000     115.74591529
  1 106 28     114.00000000       0.01000000     112.00000000
  1 106 29     113.36526533       0.01000000     111.36526533
  1 106 30     112.11340153       0.01000000     110.11340153
  1 106 31     110.87986063       0.01000000     108.87986063
  1 106 32     108.18188756       0.01000000     106.18188756
  1 106 33     106.85882608       0.01000000     104.85882608
  1 105 33     106.01478076       0.01000000     104.01478076
  1 105 34     103.37271104       0.01000000     101.37271104
  1 105 35     102.12151548       0.01000000     100.12151548
  1 105 36     101.23505562       0.01000000      99.23505562
  1 104 36     100.55116515       0.01000000      98.55116515
  1 104 37      98.31225326       0.01000000      96.31225326
  1 103 37      97.17480937       0.01000000      95.17480937
  1 103 38      96.37884126       0.01000000      94.37884126
  1 102 38      92.09650761       0.01000000      90.09650761
END period  1

