BEGIN options
  SAVE_FLOWS
END options

BEGIN dimensions
  MAXBOUND  44
END dimensions

BEGIN period  1
  1 89 21     176.67845352
  1 89 22     173.00000000
  1 89 23     173.00000000
  1 88 23     173.00000000
  1 88 24     171.75587452
  1 88 25     166.55771201
  1 88 26     163.40262991
  1 88 27     161.68150642
  1 87 27     156.76326837
  1 87 28     155.04072843
  1 86 28     152.36594683
  1 86 29     150.88735712
  1 85 29     149.91476528
  1 85 30     146.83863921
  1 85 31     144.87394762
  1 84 31     142.53348064
  1 84 32     141.06681436
  1 84 33     139.54445234
  1 83 33     137.51573624
  1 83 34     136.06207106
  1 83 35     134.67056860
  1 82 35     132.41119555
  1 82 36     130.87753451
  1 82 37     129.82781432
  1 81 37     127.03829166
  1 81 38     125.11173278
  1 81 39     122.46118229
  1 80 39     121.63237925
  1 80 40     120.50573541
  1 80 41     116.74113863
  1 80 42     113.00000000
  1 80 43     112.36786641
  1 80 44     111.11601673
  1 80 45     109.88029772
  1 80 46     107.18102736
  1 80 47     105.60823662
  1 79 47     104.76387936
  1 79 48     102.44074221
  1 79 49     101.32076834
  1 79 50     100.23253159
  1 78 50      99.61621641
  1 78 51      96.71583777
  1 77 51      95.05216409
  1 77 52      91.71517199
END period  1

