BEGIN options
  SAVE_FLOWS
END options

BEGIN dimensions
  MAXBOUND  57
END dimensions

BEGIN period  1
  1 119 26     177.25925165
  1 118 26     176.01311407
  1 118 27     173.00000000
  1 118 28     173.00000000
  1 118 29     173.00000000
  1 118 30     171.75231898
  1 118 31     170.47807137
  1 117 31     166.90826811
  1 117 32     164.57377029
  1 117 33     162.56414429
  1 116 33     161.16993898
  1 116 34     156.91057955
  1 115 34     155.65052511
  1 115 35     152.12163445
  1 115 36     151.10773005
  1 114 36     150.24790939
  1 114 37     148.92583910
  1 113 37     147.77843189
  1 113 38     146.42615116
  1 113 39     144.94896243
  1 112 39     142.48517415
  1 112 40     141.31353663
  1 112 41     140.58385685
  1 111 41     139.89496328
  1 111 42     137.09823439
  1 111 43     136.06900387
  1 110 43     135.03579132
  1 110 44     132.53054518
  1 109 44     131.68779452
  1 109 45     130.50292394
  1 109 46     129.52887248
  1 108 46     127.21019145
  1 108 47     125.59963696
  1 107 47     124.70852775
  1 107 48     122.36077335
  1 107 49     121.10625587
  1 107 50     119.87023291
  1 107 51     116.73563496
  1 107 52     113.00000000
  1 107 53     113.00000000
  1 107 54     112.36027970
  1 107 55     111.10518655
  1 107 56     109.87738622
  1 107 57     109.20818444
  1 106 57     107.38417140
  1 106 58     106.08592933
  1 106 59     104.70641327
  1 106 60     102.56783833
  1 105 60     101.97604217
  1 105 61     101.23451986
  1 105 62     100.01617203
  1 105 63      99.11021556
  1 104 63      97.39724845
  1 104 64      96.10732587
  1 103 64      94.46740284
  1 102 64      92.60806750
  1 102 65      90.65564057
END period  1

