BEGIN options
  SAVE_FLOWS
END options

BEGIN dimensions
  MAXBOUND  75
END dimensions

BEGIN period  1
  1 149 34     178.86222246
  1 148 34     178.45867789
  1 148 35     177.11202980
  1 147 35     175.89136711
  1 147 36     173.57770345
  1 147 37     172.74129169
  1 147 38     171.91180045
  1 147 39     171.08071152
  1 147 40     170.24874898
  1 147 41     167.89301230
  1 147 42     166.27318323
  1 146 42     165.12575569
  1 146 43     163.13442633
  1 146 44     161.30398034
  1 145 44     158.56662980
  1 145 45     157.59702876
  1 144 45     156.90733219
  1 144 46     156.05219898
  1 144 47     155.29014347
  1 143 47     153.29212487
  1 143 48     152.20060013
  1 142 48     151.44655310
  1 142 49     150.39339624
  1 142 50     148.60291834
  1 141 50     147.83113556
  1 141 51     146.57118859
  1 140 51     145.65131782
  1 140 52     143.32275360
  1 140 53     142.08369349
  1 139 53     141.45114249
  1 139 54     140.72222517
  1 139 55     138.50258586
  1 138 55     137.89349353
  1 138 56     137.21173949
  1 138 57     136.09223630
  1 137 57     135.42212850
  1 137 58     133.47759620
  1 137 59     132.74743262
  1 136 59     132.22925129
  1 136 60     131.42265314
  1 136 61     130.83317449
  1 135 61     130.30691319
  1 135 62     128.21061469
  1 134 62     127.31961221
  1 134 63     126.38509982
  1 134 64     123.49561231
  1 134 65     122.49621665
  1 134 66     121.50620069
  1 134 67     120.63072975
  1 133 67     120.11896654
  1 133 68     117.74665128
  1 133 69     114.00000000
  1 133 70     114.00000000
  1 133 71     114.00000000
  1 133 72     113.48261355
  1 133 73     112.47369782
  1 133 74     111.49246465
  1 133 75     110.50832858
  1 133 76     108.50715951
  1 133 77     107.51931541
  1 133 78     106.99424793
  1 132 78     106.48763358
  1 132 79     105.50446875
  1 132 80     103.53468853
  1 132 81     102.75299990
  1 131 81     102.29255955
  1 131 82     101.66113465
  1 131 83     100.65655537
  1 131 84     100.08600644
  1 130 84      98.33400205
  1 130 85      97.31879476
  1 129 85      96.21135921
  1 128 85      95.28617206
  1 128 86      93.19674369
  1 127 86      91.66859338
END period  1

