BEGIN options
  SAVE_FLOWS
END options

BEGIN dimensions
  MAXBOUND  85
END dimensions

BEGIN period  1
  1 178 39     177.35870300
  1 177 39     176.27986929
  1 177 40     175.10260581
  1 177 41     173.00000000
  1 177 42     173.00000000
  1 176 42     173.00000000
  1 176 43     173.00000000
  1 176 44     173.00000000
  1 176 45     171.75000000
  1 176 46     166.76202501
  1 176 47     162.45686269
  1 176 48     161.72439162
  1 175 48     161.10441209
  1 175 49     160.12226811
  1 174 49     159.45382653
  1 174 50     157.35549794
  1 174 51     156.56198541
  1 173 51     155.86463697
  1 173 52     155.04410518
  1 172 52     154.36846737
  1 172 53     152.51234022
  1 171 53     151.83981114
  1 171 54     151.00366095
  1 171 55     150.24705424
  1 170 55     149.65845273
  1 170 56     147.41908119
  1 170 57     146.71273149
  1 169 57     146.05069758
  1 169 58     145.22134534
  1 168 58     144.54537028
  1 168 59     142.38189861
  1 168 60     141.66382316
  1 167 60     141.05068344
  1 167 61     139.89510091
  1 167 62     139.24045064
  1 166 62     137.40115401
  1 166 63     136.22759903
  1 166 64     135.52959590
  1 165 64     134.86588243
  1 165 65     133.93642198
  1 164 65     132.76051904
  1 164 66     131.94871344
  1 164 67     131.32511565
  1 163 67     130.77090220
  1 163 68     129.82993588
  1 162 68     129.28490495
  1 162 69     127.29750348
  1 162 70     126.39261499
  1 161 70     125.76010566
  1 161 71     124.72836419
  1 161 72     122.57874088
  1 161 73     121.92314014
  1 160 73     121.51005231
  1 160 74     120.91821827
  1 160 75     120.08656293
  1 160 76     119.24365725
  1 160 77     116.75055282
  1 160 78     113.00000000
  1 160 79     113.00000000
  1 160 80     113.00000000
  1 160 81     112.56701217
  1 160 82     111.72272233
  1 160 83     110.90309078
  1 160 84     110.08640507
  1 160 85     109.62126592
  1 159 85     109.19535472
  1 159 86     107.51798525
  1 159 87     106.53238501
  1 159 88     105.52180516
  1 159 89     104.99272055
  1 158 89     104.48572618
  1 158 90     102.61100414
  1 158 91     101.83884787
  1 158 92     101.21620743
  1 157 92     100.81758498
  1 157 93     100.23370206
  1 157 94      99.54208064
  1 156 94      99.10251822
  1 156 95      97.25201363
  1 155 95      96.41550795
  1 155 96      95.64309262
  1 154 96      94.26551974
  1 153 96      92.60806750
  1 153 97      91.46822176
  1 152 97      90.33886447
END period  1

