BEGIN options
  SAVE_FLOWS
END options

BEGIN dimensions
  MAXBOUND  28
END dimensions

BEGIN period  1
  1 60 13     177.49446503
  1 59 13     176.64401951
  1 59 14     173.00000000
  1 59 15     171.78749458
  1 59 16     165.74242987
  1 59 17     162.75071083
  1 58 17     156.60816880
  1 58 18     152.24042059
  1 57 18     150.93823623
  1 57 19     146.75293237
  1 57 20     145.30580804
  1 56 20     141.82836248
  1 56 21     136.80556759
  1 56 22     135.52985935
  1 55 22     131.77380745
  1 55 23     129.79893215
  1 54 23     127.21019145
  1 54 24     122.12331368
  1 54 25     120.43473460
  1 54 26     116.75807582
  1 54 27     112.16341008
  1 54 28     110.50930764
  1 54 29     109.65399281
  1 53 29     106.79184413
  1 53 30     102.29918725
  1 53 31     100.88011879
  1 53 32     100.00298615
  1 52 32      95.75732542
END period  1

