BEGIN options
  SAVE_FLOWS
END options

BEGIN dimensions
  MAXBOUND  28
END dimensions

BEGIN period  1
  1 60 13     179.37983410
  1 59 13     178.33654857
  1 59 14     175.88983512
  1 59 15     171.91020314
  1 59 16     167.87715279
  1 59 17     165.12470809
  1 58 17     162.60161469
  1 58 18     159.28285574
  1 57 18     156.76087994
  1 57 19     153.39016012
  1 57 20     150.69816505
  1 56 20     148.36741316
  1 56 21     144.18822193
  1 56 22     141.81652814
  1 55 22     139.38932226
  1 55 23     135.72348492
  1 54 23     133.35899593
  1 54 24     130.27357708
  1 54 25     126.20824501
  1 54 26     122.30004241
  1 54 27     118.36756945
  1 54 28     114.45481741
  1 54 29     112.43158427
  1 53 29     110.43062754
  1 53 30     106.47514458
  1 53 31     102.33637756
  1 53 32      99.77818693
  1 52 32      96.62560908
END period  1

