BEGIN options
  SAVE_FLOWS
END options

BEGIN dimensions
  MAXBOUND  44
END dimensions

BEGIN period  1
  1 89 21     177.67845352
  1 89 22     173.37288030
  1 89 23     172.73210480
  1 88 23     172.11104264
  1 88 24     170.88066875
  1 88 25     167.55771201
  1 88 26     164.40262991
  1 88 27     162.68150642
  1 87 27     157.76326837
  1 87 28     156.04072843
  1 86 28     153.36594683
  1 86 29     151.88735712
  1 85 29     150.91476528
  1 85 30     147.83863921
  1 85 31     145.87394762
  1 84 31     143.53348064
  1 84 32     142.06681436
  1 84 33     140.54445234
  1 83 33     138.51573624
  1 83 34     137.06207106
  1 83 35     135.67056860
  1 82 35     133.41119555
  1 82 36     131.87753451
  1 82 37     130.82781432
  1 81 37     128.03829166
  1 81 38     126.11173278
  1 81 39     123.46118229
  1 80 39     122.63237925
  1 80 40     121.50573541
  1 80 41     117.74113863
  1 80 42     114.00000000
  1 80 43     113.36786641
  1 80 44     112.11601673
  1 80 45     110.88029772
  1 80 46     108.18102736
  1 80 47     106.60823662
  1 79 47     105.76387936
  1 79 48     103.44074221
  1 79 49     102.32076834
  1 79 50     101.23253159
  1 78 50     100.61621641
  1 78 51      97.71583777
  1 77 51      96.05216409
  1 77 52      92.71517199
END period  1

