BEGIN options
  SAVE_FLOWS
END options

BEGIN dimensions
  MAXBOUND  30
END dimensions

BEGIN period  1
  1 60 13     149.58655606
  1 59 13     148.89103238
  1 59 14     147.25989008
  1 59 15     144.60680209
  1 59 16     141.91810186
  1 59 17     140.08313873
  1 58 17     138.40107646
  1 58 18     136.18857049
  1 57 18     134.50725329
  1 57 19     132.26010675
  1 57 20     130.46544337
  1 56 20     128.91160877
  1 56 21     126.12548129
  1 56 22     124.54435209
  1 55 22     122.92621484
  1 55 23     120.48232328
  1 54 23     118.90599729
  1 54 24     116.84905139
  1 54 25     114.13883000
  1 54 26     111.53336160
  1 54 27     108.91171297
  1 54 28     106.30321161
  1 54 29     104.95438952
  1 53 29     103.62041836
  1 53 30     100.98342972
  1 53 31      98.22425171
  1 53 32      96.51879129
  1 52 32      94.41707272
  1 51 32      92.41856071
  1 51 33      91.10642677
END period  1

