BEGIN options
  SAVE_FLOWS
END options

BEGIN dimensions
  MAXBOUND  47
END dimensions

BEGIN period  1
  1 117 6     179.18748053       0.00500000     177.18748053
  1 117 7     177.01157043       0.00500000     175.01157043
  1 116 7     174.82815656       0.00500000     172.82815656
  1 116 8     173.88229626       0.00500000     171.88229626
  1 116 9     172.33164082       0.00500000     170.33164082
  1 116 10     168.49509280       0.00500000     166.49509280
  1 116 11     165.38316950       0.00500000     163.38316950
  1 115 12     159.11695393       0.00500000     157.11695393
  1 115 13     157.82977130       0.00500000     155.82977130
  1 114 13     156.73437124       0.00500000     154.73437124
  1 114 14     154.56678480       0.00500000     152.56678480
  1 113 14     153.68784576       0.00500000     151.68784576
  1 113 15     152.54951345       0.00500000     150.54951345
  1 112 15     151.75300806       0.00500000     149.75300806
  1 112 16     148.76445958       0.00500000     146.76445958
  1 112 17     147.18897543       0.00500000     145.18897543
  1 111 17     144.28898851       0.00500000     142.28898851
  1 111 18     142.81303484       0.00500000     140.81303484
  1 110 18     141.91868381       0.00500000     139.91868381
  1 110 19     139.16830732       0.00500000     137.16830732
  1 110 20     137.84249535       0.00500000     135.84249535
  1 109 20     136.96912644       0.00500000     134.96912644
  1 109 21     134.24554601       0.00500000     132.24554601
  1 108 21     133.39587823       0.00500000     131.39587823
  1 108 22     132.48713363       0.00500000     130.48713363
  1 108 23     131.39284214       0.00500000     129.39284214
  1 107 23     129.29805588       0.00500000     127.29805588
  1 107 24     127.66606391       0.00500000     125.66606391
  1 107 25     124.17133274       0.00500000     122.17133274
  1 107 26     123.11602461       0.00500000     121.11602461
  1 106 26     122.27382156       0.00500000     120.27382156
  1 106 27     118.74591529       0.00500000     116.74591529
  1 106 28     115.00000000       0.00500000     113.00000000
  1 106 29     114.36526533       0.00500000     112.36526533
  1 106 30     113.11340153       0.00500000     111.11340153
  1 106 31     111.87986063       0.00500000     109.87986063
  1 106 32     109.18188756       0.00500000     107.18188756
  1 106 33     107.85882608       0.00500000     105.85882608
  1 105 33     107.01478076       0.00500000     105.01478076
  1 105 34     104.37271104       0.00500000     102.37271104
  1 105 35     103.12151548       0.00500000     101.12151548
  1 105 36     102.23505562       0.00500000     100.23505562
  1 104 36     101.55116515       0.00500000      99.55116515
  1 104 37      99.31225326       0.00500000      97.31225326
  1 103 37      98.17480937       0.00500000      96.17480937
  1 103 38      97.37884126       0.00500000      95.37884126
  1 102 38      93.09650761       0.00500000      91.09650761
END period  1

