BEGIN options
  SAVE_FLOWS
END options

BEGIN dimensions
  MAXBOUND  55
END dimensions

BEGIN period  1
  1 104 61     135.16756023
  1 104 62     135.23191981
  1 104 63     129.94799712
  1 104 64     128.67544830
  1 104 65     122.91586735
  1 104 66     120.04703025
  1 104 67     117.07592640
  1 104 68     113.22457845
  1 104 69     114.20273492
  1 103 69     114.68099655
  1 103 70     111.18801209
  1 103 71     109.98679156
  1 104 71     109.35474285
  1 104 72     107.46715997
  1 104 73     106.27503826
  1 103 73     105.38078902
  1 103 74     103.53743262
  1 103 75     100.83416282
  1 102 75     100.75816093
  1 102 76     100.68214149
  1 102 77     100.41078780
  1 102 78      95.70343259
  1 102 79      88.81907473
  1 101 79      85.19463384
  1 101 80      81.67521892
  1 101 81      80.26532753
  1 100 81      79.54782273
  1 100 82      79.11694046
  1 101 82      78.69477335
  1 100 83      76.32669375
  1 100 84      72.84017903
  1 100 85      72.60356210
  1 99 85      71.54960539
  1 99 86      69.29634658
  1 98 86      67.15962650
  1 97 86      65.69693256
  1 97 87      64.28373388
  1 98 87      64.96546944
  1 98 88      63.34727753
  1 98 89      61.91593549
  1 97 89      61.34606195
  1 97 90      61.50812332
  1 96 90      61.05746025
  1 96 91      60.17313993
  1 97 91      59.12040493
  1 97 92      58.13639142
  1 96 92      54.79735080
  1 95 92      54.36587548
  1 96 93      53.07659934
  1 96 94      51.83803141
  1 95 94      48.34902489
  1 95 95      45.41631134
  1 94 95      44.00000000
  1 94 96      44.00000000
  1 93 97      42.49025993
END period  1

