BEGIN options
  SAVE_FLOWS
END options

BEGIN dimensions
  MAXBOUND  65
END dimensions

BEGIN period  1
  1 136 48     133.30601690       0.00500000     131.30601690
  1 135 48     126.99154310       0.00500000     124.99154310
  1 135 49     121.49553111       0.00500000     119.49553111
  1 135 50     120.00000000       0.00500000     118.00000000
  1 135 51     120.00000000       0.00500000     118.00000000
  1 136 51     120.00000000       0.00500000     118.00000000
  1 136 52     118.88257897       0.00500000     116.88257897
  1 136 53     117.10944145       0.00500000     115.10944145
  1 135 53     115.89562688       0.00500000     113.89562688
  1 135 54     112.48632950       0.00500000     110.48632950
  1 135 55     111.48443414       0.00500000     109.48443414
  1 135 56     110.00000000       0.00500000     108.00000000
  1 134 56     110.00000000       0.00500000     108.00000000
  1 134 57     110.00000000       0.00500000     108.00000000
  1 134 58     110.03651725       0.00500000     108.03651725
  1 135 58     110.06488827       0.00500000     108.06488827
  1 136 58     109.58025536       0.00500000     107.58025536
  1 136 59     109.51105066       0.00500000     107.51105066
  1 135 59     107.93203509       0.00500000     105.93203509
  1 135 60     107.03970068       0.00500000     105.03970068
  1 134 60     106.53478348       0.00500000     104.53478348
  1 134 61     102.99067122       0.00500000     100.99067122
  1 134 62      96.93587809       0.00500000      94.93587809
  1 133 62      95.22136984       0.00500000      93.22136984
  1 132 62      93.97520609       0.00500000      91.97520609
  1 133 63      93.02648648       0.00500000      91.02648648
  1 133 64      90.38236342       0.00500000      88.38236342
  1 132 64      89.27636694       0.00500000      87.27636694
  1 133 65      87.00000000       0.00500000      85.00000000
  1 132 65      87.00000000       0.00500000      85.00000000
  1 132 66      86.06024170       0.00500000      84.06024170
  1 131 66      84.51582723       0.00500000      82.51582723
  1 131 67      83.38401524       0.00500000      81.38401524
  1 132 67      80.05168154       0.00500000      78.05168154
  1 132 68      79.82449735       0.00500000      77.82449735
  1 131 68      78.87002292       0.00500000      76.87002292
  1 131 69      76.54928483       0.00500000      74.54928483
  1 131 70      74.32954283       0.00500000      72.32954283
  1 130 70      72.76003528       0.00500000      70.76003528
  1 130 71      70.57226488       0.00500000      68.57226488
  1 131 71      70.45982044       0.00500000      68.45982044
  1 131 72      70.38778344       0.00500000      68.38778344
  1 130 72      69.95744269       0.00500000      67.95744269
  1 129 72      69.82633924       0.00500000      67.82633924
  1 129 73      69.54828426       0.00500000      67.54828426
  1 128 73      67.17251487       0.00500000      65.17251487
  1 127 73      64.87958878       0.00500000      62.87958878
  1 127 74      62.57338894       0.00500000      60.57338894
  1 128 74      62.04515164       0.00500000      60.04515164
  1 128 75      61.00000000       0.00500000      59.00000000
  1 128 76      60.64018359       0.00500000      58.64018359
  1 127 76      59.97629406       0.00500000      57.97629406
  1 127 77      58.62104159       0.00500000      56.62104159
  1 126 77      55.75466566       0.00500000      53.75466566
  1 126 78      55.66623655       0.00500000      53.66623655
  1 126 79      55.59247950       0.00500000      53.59247950
  1 125 79      54.79712578       0.00500000      52.79712578
  1 125 80      52.36168912       0.00500000      50.36168912
  1 125 81      49.84809636       0.00500000      47.84809636
  1 124 81      48.81062889       0.00500000      46.81062889
  1 124 82      45.56645937       0.00500000      43.56645937
  1 124 83      45.00000000       0.00500000      43.00000000
  1 123 83      45.00000000       0.00500000      43.00000000
  1 123 84      45.00000000       0.00500000      43.00000000
  1 122 84      43.64450214       0.00500000      41.64450214
END period  1

