BEGIN options
  SAVE_FLOWS
END options

BEGIN dimensions
  MAXBOUND  55
END dimensions

BEGIN period  1
  1 104 61     135.09055624
  1 104 62     134.23191981
  1 104 63     128.94799712
  1 104 64     127.67544830
  1 104 65     121.91586735
  1 104 66     119.04703025
  1 104 67     116.07592640
  1 104 68     112.22457845
  1 104 69     113.20273492
  1 103 69     113.68099655
  1 103 70     110.18801209
  1 103 71     108.98679156
  1 104 71     108.35474285
  1 104 72     106.46715997
  1 104 73     105.27503826
  1 103 73     104.38078902
  1 103 74     102.53743262
  1 103 75      99.83416282
  1 102 75      99.75816093
  1 102 76      99.68214149
  1 102 77      99.41078780
  1 102 78      94.70343259
  1 102 79      87.81907473
  1 101 79      84.19463384
  1 101 80      80.67521892
  1 101 81      79.26532753
  1 100 81      78.54782273
  1 100 82      78.11694046
  1 101 82      77.69477335
  1 100 83      75.32669375
  1 100 84      71.84017903
  1 100 85      71.60356210
  1 99 85      70.54960539
  1 99 86      68.29634658
  1 98 86      66.15962650
  1 97 86      64.69693256
  1 97 87      63.28373388
  1 98 87      63.96546944
  1 98 88      62.34727753
  1 98 89      60.91593549
  1 97 89      60.34606195
  1 97 90      60.50812332
  1 96 90      60.05746025
  1 96 91      59.17313993
  1 97 91      58.12040493
  1 97 92      57.13639142
  1 96 92      53.79735080
  1 95 92      53.36587548
  1 96 93      52.07659934
  1 96 94      50.83803141
  1 95 94      47.34902489
  1 95 95      44.41631134
  1 94 95      43.00000000
  1 94 96      43.00000000
  1 93 97      41.49025993
END period  1

