BEGIN options
  SAVE_FLOWS
END options

BEGIN dimensions
  MAXBOUND  116
END dimensions

BEGIN period  1
  1 208 115     135.38623088
  1 208 116     135.61956439
  1 207 116     134.26268156
  1 207 117     132.31922837
  1 207 118     128.93349051
  1 207 119     128.99164454
  1 207 120     129.04318260
  1 208 120     128.79022052
  1 208 121     127.20442423
  1 208 122     122.54340541
  1 208 123     120.92547764
  1 208 124     119.29258408
  1 208 125     117.85553333
  1 207 125     116.95386058
  1 207 126     115.78987528
  1 207 127     114.12627507
  1 207 128     112.05612994
  1 207 129     112.70236661
  1 207 130     113.20192217
  1 206 130     113.22073601
  1 206 131     110.32574856
  1 206 132     109.87499833
  1 206 133     108.96435169
  1 207 133     108.41588080
  1 207 134     108.24027490
  1 208 134     108.04258463
  1 208 135     107.80983246
  1 207 135     107.34377878
  1 207 136     106.72608903
  1 206 136     105.93276103
  1 206 137     104.99452852
  1 206 138     103.64553535
  1 205 138     102.81463068
  1 205 139     102.28527140
  1 205 140     101.27435788
  1 205 141      99.84956501
  1 204 141      99.80198276
  1 203 141      99.74739046
  1 203 142      99.69429556
  1 203 143      99.64598027
  1 203 144      99.39398648
  1 203 145      98.15984651
  1 203 146      97.17934990
  1 204 146      96.39208426
  1 203 147      91.79730051
  1 203 148      88.05919251
  1 202 148      84.31647496
  1 201 148      83.51763138
  1 201 149      82.72248153
  1 201 150      80.93049702
  1 202 150      80.60346835
  1 202 151      80.27329745
  1 202 152      80.06940568
  1 201 152      79.46087523
  1 200 152      78.86169902
  1 200 153      78.28414768
  1 201 153      77.93185192
  1 201 154      77.60153256
  1 200 154      77.32578791
  1 200 155      75.73903050
  1 199 155      74.77557126
  1 199 156      74.00126253
  1 199 157      72.91201667
  1 200 157      71.91374171
  1 200 158      71.81529976
  1 200 159      71.68854361
  1 199 159      71.58446129
  1 199 160      71.49383178
  1 198 159      70.84696810
  1 198 160      69.66148450
  1 197 160      69.34241532
  1 197 161      68.30137920
  1 197 162      67.98408305
  1 196 162      66.49926296
  1 195 162      63.91506084
  1 195 161      63.62955946
  1 194 162      63.34062594
  1 194 163      62.74153802
  1 194 164      62.73343589
  1 195 164      62.72424356
  1 195 165      62.70898315
  1 196 165      62.65556882
  1 196 166      62.44209377
  1 195 166      61.04570711
  1 195 167      60.47229239
  1 194 167      60.43298594
  1 194 168      60.39273899
  1 193 168      60.40993178
  1 192 168      60.56567280
  1 192 169      60.16821766
  1 192 170      59.38999996
  1 193 170      58.67966561
  1 193 171      57.50929950
  1 192 171      56.87391820
  1 192 172      56.13253884
  1 191 172      53.76818770
  1 190 172      53.18917922
  1 190 173      52.75683195
  1 191 173      52.34047428
  1 191 174      51.62219581
  1 191 175      50.86509825
  1 191 176      50.18807633
  1 190 176      49.47958028
  1 189 176      47.68140613
  1 189 177      45.86252682
  1 189 178      44.36420084
  1 188 178      43.00000000
  1 188 179      43.00000000
  1 188 180      43.00000000
  1 187 180      43.00000000
  1 187 181      43.00000000
  1 186 181      42.19919223
  1 185 181      41.36394572
  1 185 182      40.48176582
  1 185 183      25.54326501
  1 186 183      12.76708186
END period  1

