BEGIN options
  SAVE_FLOWS
END options

BEGIN dimensions
  MAXBOUND  66
END dimensions

BEGIN period  1
  1 136 48     134.72612372       0.01000000     132.72612372
  1 135 48     132.46935826       0.01000000     130.46935826
  1 135 49     129.17597283       0.01000000     127.17597283
  1 135 50     126.34346046       0.01000000     124.34346046
  1 135 51     125.06900834       0.01000000     123.06900834
  1 136 51     124.38217529       0.01000000     122.38217529
  1 136 52     121.75919005       0.01000000     119.75919005
  1 136 53     120.13476627       0.01000000     118.13476627
  1 135 53     118.77418484       0.01000000     116.77418484
  1 135 54     116.50527019       0.01000000     114.50527019
  1 135 55     113.28866726       0.01000000     111.28866726
  1 135 56     114.14510810       0.01000000     112.14510810
  1 134 56     113.35544961       0.01000000     111.35544961
  1 134 57     111.14775169       0.01000000     109.14775169
  1 134 58     110.65363095       0.01000000     108.65363095
  1 135 58     109.25345451       0.01000000     107.25345451
  1 135 59     107.49762659       0.01000000     105.49762659
  1 134 59     106.20319577       0.01000000     104.20319577
  1 134 60     105.22368488       0.01000000     103.22368488
  1 135 60     104.00361998       0.01000000     102.00361998
  1 134 61     102.65865260       0.01000000     100.65865260
  1 134 62     100.84952257       0.01000000      98.84952257
  1 133 62     100.78308202       0.01000000      98.78308202
  1 132 62     100.71452261       0.01000000      98.71452261
  1 133 63     100.64970042       0.01000000      98.64970042
  1 133 64      99.99754472       0.01000000      97.99754472
  1 132 64      98.46233933       0.01000000      96.46233933
  1 133 65      94.47193682       0.01000000      92.47193682
  1 132 65      92.51922427       0.01000000      90.51922427
  1 132 66      88.41262540       0.01000000      86.41262540
  1 131 66      86.79176672       0.01000000      84.79176672
  1 131 67      85.43293690       0.01000000      83.43293690
  1 132 67      81.79913321       0.01000000      79.79913321
  1 132 68      81.43254440       0.01000000      79.43254440
  1 131 68      80.11879342       0.01000000      78.11879342
  1 130 68      79.44363836       0.01000000      77.44363836
  1 131 69      78.94680578       0.01000000      76.94680578
  1 131 70      78.44161536       0.01000000      76.44161536
  1 130 70      77.02581913       0.01000000      75.02581913
  1 130 71      75.88169070       0.01000000      73.88169070
  1 131 71      75.27444703       0.01000000      73.27444703
  1 130 72      74.35039919       0.01000000      72.35039919
  1 129 72      71.53051449       0.01000000      69.53051449
  1 129 73      69.28648453       0.01000000      67.28648453
  1 128 73      67.40836680       0.01000000      65.40836680
  1 127 73      64.82426588       0.01000000      62.82426588
  1 127 74      63.73814311       0.01000000      61.73814311
  1 128 74      63.72549545       0.01000000      61.72549545
  1 128 75      63.20172925       0.01000000      61.20172925
  1 128 76      62.16729796       0.01000000      60.16729796
  1 127 76      61.55984126       0.01000000      59.55984126
  1 127 77      61.64469944       0.01000000      59.64469944
  1 126 77      60.81585347       0.01000000      58.81585347
  1 126 78      59.00301075       0.01000000      57.00301075
  1 126 79      57.75780237       0.01000000      55.75780237
  1 125 79      54.74524025       0.01000000      52.74524025
  1 125 80      53.08554207       0.01000000      51.08554207
  1 125 81      51.61225016       0.01000000      49.61225016
  1 124 81      48.51375826       0.01000000      46.51375826
  1 124 82      45.27434027       0.01000000      43.27434027
  1 123 82      44.00000000       0.01000000      42.00000000
  1 123 83      44.00000000       0.01000000      42.00000000
  1 123 84      44.00000000       0.01000000      42.00000000
  1 122 84      42.82304527       0.01000000      40.82304527
  1 121 84      41.34148055       0.01000000      39.34148055
  1 121 85      40.85128367       0.01000000      38.85128367
END period  1

