BEGIN options
  SAVE_FLOWS
END options

BEGIN dimensions
  MAXBOUND  65
END dimensions

BEGIN period  1
  1 136 48     133.06401932       0.01000000     131.06401932
  1 135 48     125.99154310       0.01000000     123.99154310
  1 135 49     120.49553111       0.01000000     118.49553111
  1 135 50     119.00000000       0.01000000     117.00000000
  1 135 51     119.00000000       0.01000000     117.00000000
  1 136 51     119.00000000       0.01000000     117.00000000
  1 136 52     117.88257897       0.01000000     115.88257897
  1 136 53     116.10944145       0.01000000     114.10944145
  1 135 53     114.89562688       0.01000000     112.89562688
  1 135 54     111.48632950       0.01000000     109.48632950
  1 135 55     110.48443414       0.01000000     108.48443414
  1 135 56     109.00000000       0.01000000     107.00000000
  1 134 56     109.00000000       0.01000000     107.00000000
  1 134 57     109.00000000       0.01000000     107.00000000
  1 134 58     109.03651725       0.01000000     107.03651725
  1 135 58     109.06488827       0.01000000     107.06488827
  1 136 58     108.58025536       0.01000000     106.58025536
  1 136 59     108.51105066       0.01000000     106.51105066
  1 135 59     106.93203509       0.01000000     104.93203509
  1 135 60     106.03970068       0.01000000     104.03970068
  1 134 60     105.53478348       0.01000000     103.53478348
  1 134 61     101.99067122       0.01000000      99.99067122
  1 134 62      95.93587809       0.01000000      93.93587809
  1 133 62      94.22136984       0.01000000      92.22136984
  1 132 62      92.97520609       0.01000000      90.97520609
  1 133 63      92.02648648       0.01000000      90.02648648
  1 133 64      89.38236342       0.01000000      87.38236342
  1 132 64      88.27636694       0.01000000      86.27636694
  1 133 65      86.00000000       0.01000000      84.00000000
  1 132 65      86.00000000       0.01000000      84.00000000
  1 132 66      85.06024170       0.01000000      83.06024170
  1 131 66      83.51582723       0.01000000      81.51582723
  1 131 67      82.38401524       0.01000000      80.38401524
  1 132 67      79.05168154       0.01000000      77.05168154
  1 132 68      78.82449735       0.01000000      76.82449735
  1 131 68      77.87002292       0.01000000      75.87002292
  1 131 69      75.54928483       0.01000000      73.54928483
  1 131 70      73.32954283       0.01000000      71.32954283
  1 130 70      71.76003528       0.01000000      69.76003528
  1 130 71      69.57226488       0.01000000      67.57226488
  1 131 71      69.45982044       0.01000000      67.45982044
  1 131 72      69.38778344       0.01000000      67.38778344
  1 130 72      68.95744269       0.01000000      66.95744269
  1 129 72      68.82633924       0.01000000      66.82633924
  1 129 73      68.54828426       0.01000000      66.54828426
  1 128 73      66.17251487       0.01000000      64.17251487
  1 127 73      63.87958878       0.01000000      61.87958878
  1 127 74      61.57338894       0.01000000      59.57338894
  1 128 74      61.04515164       0.01000000      59.04515164
  1 128 75      60.00000000       0.01000000      58.00000000
  1 128 76      59.64018359       0.01000000      57.64018359
  1 127 76      58.97629406       0.01000000      56.97629406
  1 127 77      57.62104159       0.01000000      55.62104159
  1 126 77      54.75466566       0.01000000      52.75466566
  1 126 78      54.66623655       0.01000000      52.66623655
  1 126 79      54.59247950       0.01000000      52.59247950
  1 125 79      53.79712578       0.01000000      51.79712578
  1 125 80      51.36168912       0.01000000      49.36168912
  1 125 81      48.84809636       0.01000000      46.84809636
  1 124 81      47.81062889       0.01000000      45.81062889
  1 124 82      44.56645937       0.01000000      42.56645937
  1 124 83      44.00000000       0.01000000      42.00000000
  1 123 83      44.00000000       0.01000000      42.00000000
  1 123 84      44.00000000       0.01000000      42.00000000
  1 122 84      42.64450214       0.01000000      40.64450214
END period  1

