BEGIN options
  SAVE_FLOWS
END options

BEGIN dimensions
  MAXBOUND  38
END dimensions

BEGIN period  1
  1 70 39     135.35164636
  1 69 39     133.53932046
  1 69 40     130.95037406
  1 70 40     128.87722522
  1 70 41     121.44976551
  1 70 42     118.41336056
  1 69 42     116.38502453
  1 69 43     112.21071425
  1 69 44     112.50977335
  1 69 45     108.06762377
  1 70 45     106.29474074
  1 69 46     103.91567667
  1 69 47      99.81888265
  1 68 47      99.72585329
  1 68 48      99.40457130
  1 68 49      95.90090797
  1 68 50      86.32053739
  1 67 50      80.83715409
  1 68 51      80.47598362
  1 67 51      78.93648344
  1 67 52      75.44569459
  1 67 53      71.72549345
  1 67 54      71.46765055
  1 66 53      71.05315371
  1 66 54      68.10904103
  1 65 54      63.81527197
  1 65 55      62.72538402
  1 66 55      62.68565171
  1 66 56      62.61491670
  1 65 56      61.12011819
  1 64 56      60.94486212
  1 64 57      60.26919292
  1 65 57      58.93066796
  1 64 58      52.65226405
  1 64 59      50.32281696
  1 63 59      47.73008840
  1 63 60      44.66911347
  1 62 61      24.51858079
END period  1

