BEGIN options
  SAVE_FLOWS
END options

BEGIN dimensions
  MAXBOUND  53
END dimensions

BEGIN period  1
  1 104 58     134.30275266
  1 104 59     128.94812033
  1 104 60     129.95477497
  1 104 61     129.32644766
  1 104 62     119.76274798
  1 104 63     120.33983316
  1 104 64     119.34746950
  1 104 65     116.09319108
  1 103 65     113.40935008
  1 103 66     110.11213546
  1 103 67     111.58278042
  1 104 67     120.60514876
  1 104 68     116.67362454
  1 103 68     119.52079875
  1 103 69     113.62538199
  1 103 70     106.10616166
  1 103 71     100.41765724
  1 102 71     103.47415107
  1 102 72      99.40904548
  1 102 73      97.42715752
  1 102 74      93.73181381
  1 101 74      91.67049304
  1 101 75      83.40528623
  1 101 76      79.71369823
  1 100 76      79.67622180
  1 100 77      79.28245539
  1 101 77      78.52153684
  1 100 78      75.33448149
  1 100 79      71.61462925
  1 100 80      70.73235387
  1 99 80      70.42297625
  1 99 81      68.32371304
  1 98 81      66.15962650
  1 97 81      64.39733555
  1 97 82      62.74315571
  1 98 82      62.73183836
  1 98 83      61.85085632
  1 98 84      60.47229239
  1 97 84      60.45212786
  1 96 84      60.63394847
  1 96 85      60.23364817
  1 97 85      59.19309867
  1 97 86      58.30274251
  1 96 86      54.67486457
  1 95 86      53.32051446
  1 95 87      52.75683195
  1 96 87      51.96026442
  1 96 88      50.56496403
  1 95 88      47.72637882
  1 95 89      44.78420488
  1 94 89      43.00000000
  1 94 90      43.00000000
  1 93 91      41.56198176
END period  1

