BEGIN options
  SAVE_FLOWS
END options

BEGIN dimensions
  MAXBOUND  55
END dimensions

BEGIN period  1
  1 104 61     134.85954425       0.01000000     132.85954425
  1 104 62     132.30132924       0.01000000     130.30132924
  1 104 63     129.18038351       0.01000000     127.18038351
  1 104 64     126.01724270       0.01000000     124.01724270
  1 104 65     121.72053443       0.01000000     119.72053443
  1 104 66     119.18851501       0.01000000     117.18851501
  1 104 67     116.56623554       0.01000000     114.56623554
  1 104 68     113.22457845       0.01000000     111.22457845
  1 104 69     114.20273492       0.01000000     112.20273492
  1 103 69     114.68099655       0.01000000     112.68099655
  1 103 70     111.18801209       0.01000000     109.18801209
  1 103 71     109.98679156       0.01000000     107.98679156
  1 104 71     109.35474285       0.01000000     107.35474285
  1 104 72     107.46715997       0.01000000     105.46715997
  1 104 73     106.27503826       0.01000000     104.27503826
  1 103 73     105.38078902       0.01000000     103.38078902
  1 103 74     103.53743262       0.01000000     101.53743262
  1 103 75     100.83416282       0.01000000      98.83416282
  1 102 75     100.75816093       0.01000000      98.75816093
  1 102 76     100.68214149       0.01000000      98.68214149
  1 102 77     100.41078780       0.01000000      98.41078780
  1 102 78      95.70343259       0.01000000      93.70343259
  1 102 79      88.81907473       0.01000000      86.81907473
  1 101 79      85.19463384       0.01000000      83.19463384
  1 101 80      81.67521892       0.01000000      79.67521892
  1 101 81      80.26532753       0.01000000      78.26532753
  1 100 81      79.54782273       0.01000000      77.54782273
  1 100 82      79.11694046       0.01000000      77.11694046
  1 101 82      78.69477335       0.01000000      76.69477335
  1 100 83      76.32669375       0.01000000      74.32669375
  1 100 84      72.84017903       0.01000000      70.84017903
  1 100 85      72.60356210       0.01000000      70.60356210
  1 99 85      71.54960539       0.01000000      69.54960539
  1 99 86      69.29634658       0.01000000      67.29634658
  1 98 86      67.15962650       0.01000000      65.15962650
  1 97 86      65.69693256       0.01000000      63.69693256
  1 97 87      64.28373388       0.01000000      62.28373388
  1 98 87      64.96546944       0.01000000      62.96546944
  1 98 88      63.34727753       0.01000000      61.34727753
  1 98 89      61.91593549       0.01000000      59.91593549
  1 97 89      61.34606195       0.01000000      59.34606195
  1 97 90      61.50812332       0.01000000      59.50812332
  1 96 90      61.05746025       0.01000000      59.05746025
  1 96 91      60.17313993       0.01000000      58.17313993
  1 97 91      59.12040493       0.01000000      57.12040493
  1 97 92      58.13639142       0.01000000      56.13639142
  1 96 92      54.79735080       0.01000000      52.79735080
  1 95 92      54.36587548       0.01000000      52.36587548
  1 96 93      53.07659934       0.01000000      51.07659934
  1 96 94      51.83803141       0.01000000      49.83803141
  1 95 94      48.34902489       0.01000000      46.34902489
  1 95 95      45.41631134       0.01000000      43.41631134
  1 94 95      44.00000000       0.01000000      42.00000000
  1 94 96      44.00000000       0.01000000      42.00000000
  1 93 97      42.49025993       0.01000000      40.49025993
END period  1

