BEGIN options
  SAVE_FLOWS
END options

BEGIN dimensions
  MAXBOUND  83
END dimensions

BEGIN period  1
  1 139 77     135.26745407
  1 138 77     135.55833435
  1 138 78     134.30750331
  1 138 79     128.94802902
  1 138 80     129.02864409
  1 139 80     128.87722522
  1 139 81     127.31082103
  1 139 82     121.97478594
  1 139 83     119.07627052
  1 139 84     117.40261466
  1 138 84     115.88109728
  1 138 85     112.05360867
  1 138 86     112.69244798
  1 138 87     112.23324973
  1 138 88     110.54472188
  1 137 88     110.27080789
  1 137 89     109.93434358
  1 138 89     108.79733629
  1 139 89     108.36185922
  1 139 90     108.02743160
  1 138 90     107.34377878
  1 138 91     106.07449003
  1 138 92     104.24021096
  1 137 92     103.12267279
  1 137 93     102.03628335
  1 137 94      99.83768593
  1 136 94      99.76525252
  1 135 94      99.71069360
  1 135 95      99.68751722
  1 136 95      99.65075476
  1 136 96      99.45294490
  1 135 96      99.28589372
  1 135 97      99.13816678
  1 136 97      97.85560797
  1 136 98      93.56063730
  1 135 98      91.73952951
  1 135 99      86.97445739
  1 134 99      84.73675496
  1 134 100      80.88195506
  1 135 100      80.51856900
  1 135 101      80.14216183
  1 134 101      79.41517062
  1 134 102      77.70278768
  1 133 101      77.42976526
  1 133 102      77.27132150
  1 134 103      76.90103546
  1 133 103      76.54781129
  1 133 104      75.25918445
  1 133 105      71.84961981
  1 133 106      71.63173175
  1 133 107      71.46765055
  1 132 106      70.91665508
  1 132 107      69.47332496
  1 132 108      68.79503920
  1 131 108      66.73562203
  1 130 108      63.71562563
  1 130 109      62.73596481
  1 130 110      62.71260227
  1 131 110      62.66640303
  1 131 111      62.50433514
  1 130 111      61.09528184
  1 130 112      60.80950112
  1 129 112      60.43200883
  1 128 112      60.59894344
  1 128 113      59.96067460
  1 129 113      58.75705086
  1 129 114      57.45616816
  1 128 114      56.43322693
  1 128 115      53.86435618
  1 127 115      53.31904912
  1 127 116      52.54189947
  1 128 116      51.82964452
  1 128 117      50.83662806
  1 127 117      49.52923914
  1 126 117      47.94350576
  1 126 118      45.87698449
  1 126 119      44.80764986
  1 126 120      44.39016537
  1 125 120      44.13328489
  1 125 121      43.75598245
  1 124 121      41.32002554
  1 124 122      30.36728285
  1 123 122      16.20396884
END period  1

