BEGIN options
  SAVE_FLOWS
END options

BEGIN dimensions
  MAXBOUND  105
END dimensions

BEGIN period  1
  1 174 102     135.09462592
  1 173 102     135.50756316
  1 173 103     135.81916048
  1 173 104     133.32048644
  1 173 105     129.93338226
  1 173 106     129.99131979
  1 173 107     129.08941824
  1 173 108     127.06983478
  1 173 109     123.24708983
  1 174 109     121.95301028
  1 174 110     121.37231866
  1 173 110     120.02988484
  1 173 111     117.62972062
  1 173 112     114.77838540
  1 173 113     112.81698572
  1 172 113     113.14296456
  1 172 114     113.71295410
  1 172 115     113.96221095
  1 172 116     111.35525430
  1 172 117     110.95693798
  1 172 118     110.00970078
  1 172 119     109.82861023
  1 173 119     109.26447467
  1 173 120     107.85777994
  1 172 120     107.03615516
  1 172 121     106.31572734
  1 172 122     105.15764900
  1 172 123     104.20651206
  1 171 123     103.39903931
  1 171 124     102.48208595
  1 171 125     100.83827323
  1 170 125     100.76993583
  1 169 125     100.71287699
  1 169 126     100.66072770
  1 170 126     100.62861636
  1 170 127     100.59854920
  1 170 128     100.56851922
  1 169 128     100.40384187
  1 169 129     100.09508465
  1 170 129      99.35202237
  1 170 130      97.91168899
  1 169 130      94.57463250
  1 169 131      88.49227725
  1 169 132      87.63457613
  1 168 132      85.31470490
  1 167 132      84.34937804
  1 167 133      83.68012920
  1 168 133      81.87247704
  1 169 133      81.56655942
  1 169 134      81.30047773
  1 168 134      81.13011211
  1 168 135      80.35785916
  1 167 135      78.75100289
  1 167 136      78.39385202
  1 167 137      78.09042669
  1 167 138      77.88917785
  1 166 138      76.55168894
  1 166 139      72.87823901
  1 166 140      72.77539281
  1 167 140      72.70963541
  1 167 141      72.67946024
  1 166 141      72.60088813
  1 166 142      72.46081327
  1 165 141      71.88883399
  1 165 142      70.51156110
  1 165 143      69.44379464
  1 164 143      69.22768552
  1 164 144      69.00480107
  1 163 144      68.75780111
  1 163 143      68.11831285
  1 162 143      67.43326804
  1 162 144      64.76439268
  1 162 145      63.73638043
  1 162 146      63.72282439
  1 163 146      63.42250636
  1 163 147      62.85063222
  1 163 148      62.14765528
  1 162 148      61.46406372
  1 162 149      61.40557205
  1 161 149      61.42535704
  1 160 149      61.57814474
  1 160 150      61.21899108
  1 160 151      60.49872108
  1 161 151      59.85047926
  1 161 152      58.88781929
  1 160 152      58.24681751
  1 160 153      57.53058942
  1 159 153      54.73574020
  1 159 154      53.31788664
  1 159 155      52.51504641
  1 160 155      52.05468680
  1 160 156      51.75300821
  1 159 156      51.06463043
  1 158 156      48.62642757
  1 158 157      46.88957395
  1 158 158      46.57997529
  1 157 158      45.68542154
  1 157 159      44.00000000
  1 157 160      44.00000000
  1 156 160      44.00000000
  1 156 161      44.00000000
  1 155 161      42.79020131
  1 154 161      41.31585429
  1 154 162      29.45647135
  1 154 163      17.34075544
END period  1

