BEGIN options
  SAVE_FLOWS
END options

BEGIN dimensions
  MAXBOUND  52
END dimensions

BEGIN period  1
  1 42 104       0.00384615
  1 42 105       0.00384615
  1 43 102       0.00384615
  1 43 103       0.00384615
  1 44 99       0.00384615
  1 44 100       0.00384615
  1 44 101       0.00384615
  1 45 98       0.00384615
  1 46 98       0.00384615
  1 47 97       0.00384615
  1 48 96       0.00384615
  1 49 95       0.00384615
  1 50 95       0.00384615
  1 51 92       0.00384615
  1 51 93       0.00384615
  1 51 94       0.00384615
  1 52 92       0.00384615
  1 53 92       0.00384615
  1 54 92       0.00384615
  1 55 93       0.00384615
  1 56 93       0.00384615
  1 57 80       0.00384615
  1 57 81       0.00384615
  1 57 82       0.00384615
  1 57 83       0.00384615
  1 57 84       0.00384615
  1 57 85       0.00384615
  1 57 91       0.00384615
  1 57 92       0.00384615
  1 58 74       0.00384615
  1 58 75       0.00384615
  1 58 76       0.00384615
  1 58 77       0.00384615
  1 58 78       0.00384615
  1 58 79       0.00384615
  1 58 86       0.00384615
  1 58 87       0.00384615
  1 58 88       0.00384615
  1 58 89       0.00384615
  1 58 90       0.00384615
  1 59 73       0.00384615
  1 59 74       0.00384615
  1 60 75       0.00384615
  1 61 75       0.00384615
  1 62 76       0.00384615
  1 63 76       0.00384615
  1 64 76       0.00384615
  1 65 75       0.00384615
  1 66 74       0.00384615
  1 67 73       0.00384615
  1 68 72       0.00384615
  1 69 72       0.00384615
END period  1

