BEGIN options
  SAVE_FLOWS
END options

BEGIN dimensions
  MAXBOUND  49
END dimensions

BEGIN period  1
  1 43 104       0.00408163
  1 43 105       0.00408163
  1 44 101       0.00408163
  1 44 102       0.00408163
  1 44 103       0.00408163
  1 45 99       0.00408163
  1 45 100       0.00408163
  1 46 99       0.00408163
  1 47 98       0.00408163
  1 48 97       0.00408163
  1 49 96       0.00408163
  1 50 96       0.00408163
  1 51 95       0.00408163
  1 52 92       0.00408163
  1 52 93       0.00408163
  1 52 94       0.00408163
  1 53 92       0.00408163
  1 54 93       0.00408163
  1 55 94       0.00408163
  1 56 94       0.00408163
  1 57 93       0.00408163
  1 58 79       0.00408163
  1 58 80       0.00408163
  1 58 81       0.00408163
  1 58 82       0.00408163
  1 58 83       0.00408163
  1 58 84       0.00408163
  1 58 85       0.00408163
  1 58 86       0.00408163
  1 58 91       0.00408163
  1 58 92       0.00408163
  1 59 75       0.00408163
  1 59 76       0.00408163
  1 59 77       0.00408163
  1 59 78       0.00408163
  1 59 87       0.00408163
  1 59 88       0.00408163
  1 59 89       0.00408163
  1 59 90       0.00408163
  1 60 76       0.00408163
  1 61 76       0.00408163
  1 62 77       0.00408163
  1 63 77       0.00408163
  1 64 77       0.00408163
  1 65 76       0.00408163
  1 66 75       0.00408163
  1 67 74       0.00408163
  1 68 73       0.00408163
  1 69 73       0.00408163
END period  1

