BEGIN options
  SAVE_FLOWS
END options

BEGIN dimensions
  MAXBOUND  45
END dimensions

BEGIN period  1
  1 28 115       0.00444444
  1 28 116       0.00444444
  1 28 117       0.00444444
  1 29 112       0.00444444
  1 29 113       0.00444444
  1 29 114       0.00444444
  1 30 111       0.00444444
  1 31 110       0.00444444
  1 32 109       0.00444444
  1 33 108       0.00444444
  1 34 107       0.00444444
  1 35 104       0.00444444
  1 35 105       0.00444444
  1 35 106       0.00444444
  1 36 104       0.00444444
  1 37 104       0.00444444
  1 38 105       0.00444444
  1 39 105       0.00444444
  1 40 92       0.00444444
  1 40 93       0.00444444
  1 40 94       0.00444444
  1 40 95       0.00444444
  1 40 96       0.00444444
  1 40 97       0.00444444
  1 40 98       0.00444444
  1 40 99       0.00444444
  1 40 103       0.00444444
  1 40 104       0.00444444
  1 41 87       0.00444444
  1 41 88       0.00444444
  1 41 89       0.00444444
  1 41 90       0.00444444
  1 41 91       0.00444444
  1 41 100       0.00444444
  1 41 101       0.00444444
  1 41 102       0.00444444
  1 42 87       0.00444444
  1 43 88       0.00444444
  1 44 89       0.00444444
  1 45 89       0.00444444
  1 46 88       0.00444444
  1 47 87       0.00444444
  1 48 86       0.00444444
  1 49 85       0.00444444
  1 50 85       0.00444444
END period  1

