BEGIN options
  SAVE_FLOWS
END options

BEGIN dimensions
  MAXBOUND  534
END dimensions

BEGIN period  1
  1 13 145       0.00000000
  1 13 146       0.00000000
  1 14 145       0.00000000
  1 14 146       0.00000000
  1 14 147       0.00000000
  1 15 135       0.00000000
  1 15 136       0.00000000
  1 15 137       0.00000000
  1 15 138       0.00000000
  1 15 140       0.00000000
  1 15 141       0.00000000
  1 15 143       0.00000000
  1 15 144       0.00000000
  1 15 145       0.00000000
  1 15 146       0.00000000
  1 15 147       0.00000000
  1 16 134       0.00000000
  1 16 135       0.00000000
  1 16 136       0.00000000
  1 16 137       0.00000000
  1 16 138       0.00000000
  1 16 139       0.00000000
  1 16 140       0.00000000
  1 16 141       0.00000000
  1 16 142       0.00000000
  1 16 143       0.00000000
  1 16 144       0.00000000
  1 16 145       0.00000000
  1 16 146       0.00000000
  1 17 133       0.00000000
  1 17 134       0.00000000
  1 17 135       0.00000000
  1 17 136       0.00000000
  1 17 137       0.00000000
  1 17 138       0.00000000
  1 17 139       0.00000000
  1 17 140       0.00000000
  1 17 141       0.00000000
  1 17 142       0.00000000
  1 17 143       0.00000000
  1 17 144       0.00000000
  1 17 145       0.00000000
  1 17 146       0.00000000
  1 17 147       0.00000000
  1 18 133       0.00000000
  1 18 134       0.00000000
  1 18 135       0.00000000
  1 18 136       0.00000000
  1 18 137       0.00000000
  1 18 138       0.00000000
  1 18 139       0.00000000
  1 18 140       0.00000000
  1 18 141       0.00000000
  1 18 142       0.00000000
  1 18 143       0.00000000
  1 18 144       0.00000000
  1 18 145       0.00000000
  1 18 146       0.00000000
  1 19 133       0.00000000
  1 19 134       0.00000000
  1 19 135       0.00000000
  1 19 136       0.00000000
  1 19 137       0.00000000
  1 19 138       0.00000000
  1 19 139       0.00000000
  1 19 140       0.00000000
  1 19 141       0.00000000
  1 19 142       0.00000000
  1 19 143       0.00000000
  1 19 144       0.00000000
  1 19 145       0.00000000
  1 19 146       0.00000000
  1 20 133       0.00000000
  1 20 134       0.00000000
  1 20 135       0.00000000
  1 20 136       0.00000000
  1 20 137       0.00000000
  1 20 138       0.00000000
  1 20 139       0.00000000
  1 20 140       0.00000000
  1 20 141       0.00000000
  1 20 142       0.00000000
  1 20 143       0.00000000
  1 20 144       0.00000000
  1 20 145       0.00000000
  1 21 134       0.00000000
  1 21 135       0.00000000
  1 21 136       0.00000000
  1 21 137       0.00000000
  1 21 138       0.00000000
  1 21 139       0.00000000
  1 21 140       0.00000000
  1 21 141       0.00000000
  1 21 142       0.00000000
  1 21 143       0.00000000
  1 21 144       0.00000000
  1 22 133       0.00000000
  1 22 134       0.00000000
  1 22 135       0.00000000
  1 22 136       0.00000000
  1 22 137       0.00000000
  1 22 138       0.00000000
  1 22 139       0.00000000
  1 22 140       0.00000000
  1 22 141       0.00000000
  1 22 142       0.00000000
  1 22 143       0.00000000
  1 23 132       0.00000000
  1 23 133       0.00000000
  1 23 134       0.00000000
  1 23 135       0.00000000
  1 23 136       0.00000000
  1 23 137       0.00000000
  1 23 138       0.00000000
  1 23 139       0.00000000
  1 23 140       0.00000000
  1 23 141       0.00000000
  1 23 142       0.00000000
  1 23 143       0.00000000
  1 24 132       0.00000000
  1 24 133       0.00000000
  1 24 134       0.00000000
  1 24 135       0.00000000
  1 24 136       0.00000000
  1 24 137       0.00000000
  1 24 138       0.00000000
  1 24 139       0.00000000
  1 24 140       0.00000000
  1 24 141       0.00000000
  1 24 142       0.00000000
  1 25 129       0.00000000
  1 25 130       0.00000000
  1 25 131       0.00000000
  1 25 132       0.00000000
  1 25 133       0.00000000
  1 25 134       0.00000000
  1 25 135       0.00000000
  1 25 136       0.00000000
  1 25 137       0.00000000
  1 25 138       0.00000000
  1 25 139       0.00000000
  1 25 140       0.00000000
  1 25 141       0.00000000
  1 26 127       0.00000000
  1 26 128       0.00000000
  1 26 129       0.00000000
  1 26 130       0.00000000
  1 26 131       0.00000000
  1 26 132       0.00000000
  1 26 133       0.00000000
  1 26 134       0.00000000
  1 26 135       0.00000000
  1 26 136       0.00000000
  1 26 137       0.00000000
  1 26 138       0.00000000
  1 26 139       0.00000000
  1 26 140       0.00000000
  1 26 141       0.00000000
  1 27 126       0.00000000
  1 27 127       0.00000000
  1 27 128       0.00000000
  1 27 129       0.00000000
  1 27 130       0.00000000
  1 27 131       0.00000000
  1 27 132       0.00000000
  1 27 133       0.00000000
  1 27 134       0.00000000
  1 27 135       0.00000000
  1 27 136       0.00000000
  1 27 137       0.00000000
  1 27 138       0.00000000
  1 27 139       0.00000000
  1 27 140       0.00000000
  1 27 141       0.00000000
  1 28 124       0.00000000
  1 28 125       0.00000000
  1 28 126       0.00000000
  1 28 127       0.00000000
  1 28 128       0.00000000
  1 28 129       0.00000000
  1 28 130       0.00000000
  1 28 131       0.00000000
  1 28 132       0.00000000
  1 28 133       0.00000000
  1 28 134       0.00000000
  1 28 135       0.00000000
  1 28 136       0.00000000
  1 28 137       0.00000000
  1 28 138       0.00000000
  1 28 139       0.00000000
  1 28 140       0.00000000
  1 28 141       0.00000000
  1 28 142       0.00000000
  1 29 123       0.00000000
  1 29 124       0.00000000
  1 29 125       0.00000000
  1 29 126       0.00000000
  1 29 127       0.00000000
  1 29 128       0.00000000
  1 29 129       0.00000000
  1 29 130       0.00000000
  1 29 131       0.00000000
  1 29 132       0.00000000
  1 29 133       0.00000000
  1 29 134       0.00000000
  1 29 135       0.00000000
  1 29 136       0.00000000
  1 29 137       0.00000000
  1 29 138       0.00000000
  1 29 139       0.00000000
  1 29 140       0.00000000
  1 29 141       0.00000000
  1 29 142       0.00000000
  1 29 143       0.00000000
  1 30 122       0.00000000
  1 30 123       0.00000000
  1 30 124       0.00000000
  1 30 125       0.00000000
  1 30 126       0.00000000
  1 30 127       0.00000000
  1 30 128       0.00000000
  1 30 129       0.00000000
  1 30 130       0.00000000
  1 30 131       0.00000000
  1 30 132       0.00000000
  1 30 133       0.00000000
  1 30 134       0.00000000
  1 30 135       0.00000000
  1 30 136       0.00000000
  1 30 137       0.00000000
  1 30 138       0.00000000
  1 30 139       0.00000000
  1 30 140       0.00000000
  1 30 141       0.00000000
  1 30 143       0.00000000
  1 31 122       0.00000000
  1 31 123       0.00000000
  1 31 124       0.00000000
  1 31 125       0.00000000
  1 31 126       0.00000000
  1 31 127       0.00000000
  1 31 128       0.00000000
  1 31 129       0.00000000
  1 31 130       0.00000000
  1 31 131       0.00000000
  1 31 132       0.00000000
  1 31 133       0.00000000
  1 31 134       0.00000000
  1 31 135       0.00000000
  1 31 136       0.00000000
  1 31 137       0.00000000
  1 31 138       0.00000000
  1 31 139       0.00000000
  1 31 140       0.00000000
  1 31 141       0.00000000
  1 31 143       0.00000000
  1 32 122       0.00000000
  1 32 123       0.00000000
  1 32 124       0.00000000
  1 32 125       0.00000000
  1 32 126       0.00000000
  1 32 127       0.00000000
  1 32 128       0.00000000
  1 32 129       0.00000000
  1 32 130       0.00000000
  1 32 131       0.00000000
  1 32 132       0.00000000
  1 32 133       0.00000000
  1 32 134       0.00000000
  1 32 135       0.00000000
  1 32 136       0.00000000
  1 32 137       0.00000000
  1 32 138       0.00000000
  1 32 139       0.00000000
  1 32 140       0.00000000
  1 33 121       0.00000000
  1 33 122       0.00000000
  1 33 123       0.00000000
  1 33 124       0.00000000
  1 33 125       0.00000000
  1 33 126       0.00000000
  1 33 127       0.00000000
  1 33 128       0.00000000
  1 33 129       0.00000000
  1 33 130       0.00000000
  1 33 131       0.00000000
  1 33 132       0.00000000
  1 33 133       0.00000000
  1 33 134       0.00000000
  1 33 135       0.00000000
  1 33 136       0.00000000
  1 33 137       0.00000000
  1 33 138       0.00000000
  1 33 139       0.00000000
  1 33 140       0.00000000
  1 33 141       0.00000000
  1 33 143       0.00000000
  1 34 120       0.00000000
  1 34 121       0.00000000
  1 34 124       0.00000000
  1 34 125       0.00000000
  1 34 126       0.00000000
  1 34 127       0.00000000
  1 34 128       0.00000000
  1 34 129       0.00000000
  1 34 130       0.00000000
  1 34 131       0.00000000
  1 34 132       0.00000000
  1 34 133       0.00000000
  1 34 134       0.00000000
  1 34 135       0.00000000
  1 34 136       0.00000000
  1 34 137       0.00000000
  1 34 138       0.00000000
  1 34 139       0.00000000
  1 34 140       0.00000000
  1 34 141       0.00000000
  1 34 142       0.00000000
  1 34 143       0.00000000
  1 35 124       0.00000000
  1 35 125       0.00000000
  1 35 126       0.00000000
  1 35 127       0.00000000
  1 35 128       0.00000000
  1 35 129       0.00000000
  1 35 130       0.00000000
  1 35 131       0.00000000
  1 35 132       0.00000000
  1 35 133       0.00000000
  1 35 134       0.00000000
  1 35 135       0.00000000
  1 35 136       0.00000000
  1 35 137       0.00000000
  1 35 139       0.00000000
  1 35 140       0.00000000
  1 35 141       0.00000000
  1 35 142       0.00000000
  1 36 125       0.00000000
  1 36 126       0.00000000
  1 36 127       0.00000000
  1 36 128       0.00000000
  1 36 129       0.00000000
  1 36 130       0.00000000
  1 36 131       0.00000000
  1 36 132       0.00000000
  1 36 133       0.00000000
  1 36 134       0.00000000
  1 36 135       0.00000000
  1 36 136       0.00000000
  1 36 137       0.00000000
  1 36 138       0.00000000
  1 36 139       0.00000000
  1 36 140       0.00000000
  1 36 141       0.00000000
  1 37 125       0.00000000
  1 37 126       0.00000000
  1 37 127       0.00000000
  1 37 128       0.00000000
  1 37 129       0.00000000
  1 37 130       0.00000000
  1 37 131       0.00000000
  1 37 132       0.00000000
  1 37 133       0.00000000
  1 37 134       0.00000000
  1 37 135       0.00000000
  1 37 136       0.00000000
  1 37 137       0.00000000
  1 37 138       0.00000000
  1 37 139       0.00000000
  1 37 140       0.00000000
  1 37 141       0.00000000
  1 38 125       0.00000000
  1 38 126       0.00000000
  1 38 127       0.00000000
  1 38 128       0.00000000
  1 38 129       0.00000000
  1 38 130       0.00000000
  1 38 131       0.00000000
  1 38 132       0.00000000
  1 38 133       0.00000000
  1 38 134       0.00000000
  1 38 135       0.00000000
  1 38 136       0.00000000
  1 38 137       0.00000000
  1 38 138       0.00000000
  1 38 139       0.00000000
  1 39 125       0.00000000
  1 39 126       0.00000000
  1 39 127       0.00000000
  1 39 128       0.00000000
  1 39 129       0.00000000
  1 39 130       0.00000000
  1 39 131       0.00000000
  1 39 132       0.00000000
  1 39 133       0.00000000
  1 39 134       0.00000000
  1 39 135       0.00000000
  1 39 136       0.00000000
  1 39 137       0.00000000
  1 39 138       0.00000000
  1 39 139       0.00000000
  1 39 140       0.00000000
  1 39 141       0.00000000
  1 40 126       0.00000000
  1 40 127       0.00000000
  1 40 128       0.00000000
  1 40 129       0.00000000
  1 40 130       0.00000000
  1 40 131       0.00000000
  1 40 132       0.00000000
  1 40 133       0.00000000
  1 40 134       0.00000000
  1 40 135       0.00000000
  1 40 136       0.00000000
  1 40 137       0.00000000
  1 40 138       0.00000000
  1 40 139       0.00000000
  1 41 126       0.00000000
  1 41 127       0.00000000
  1 41 128       0.00000000
  1 41 129       0.00000000
  1 41 130       0.00000000
  1 41 131       0.00000000
  1 41 132       0.00000000
  1 41 133       0.00000000
  1 41 134       0.00000000
  1 41 135       0.00000000
  1 41 136       0.00000000
  1 41 137       0.00000000
  1 41 138       0.00000000
  1 41 139       0.00000000
  1 41 140       0.00000000
  1 41 141       0.00000000
  1 42 127       0.00000000
  1 42 128       0.00000000
  1 42 129       0.00000000
  1 42 130       0.00000000
  1 42 131       0.00000000
  1 42 132       0.00000000
  1 42 133       0.00000000
  1 42 134       0.00000000
  1 42 135       0.00000000
  1 42 136       0.00000000
  1 42 137       0.00000000
  1 42 138       0.00000000
  1 42 139       0.00000000
  1 42 140       0.00000000
  1 42 141       0.00000000
  1 43 127       0.00000000
  1 43 128       0.00000000
  1 43 129       0.00000000
  1 43 130       0.00000000
  1 43 131       0.00000000
  1 43 132       0.00000000
  1 43 133       0.00000000
  1 43 134       0.00000000
  1 43 135       0.00000000
  1 43 136       0.00000000
  1 43 139       0.00000000
  1 43 140       0.00000000
  1 43 141       0.00000000
  1 44 129       0.00000000
  1 44 130       0.00000000
  1 44 131       0.00000000
  1 44 132       0.00000000
  1 44 133       0.00000000
  1 44 140       0.00000000
  1 44 141       0.00000000
  1 44 143       0.00000000
  1 79 137       0.00000000
  1 79 139       0.00000000
  1 79 140       0.00000000
  1 80 135       0.00000000
  1 80 136       0.00000000
  1 80 137       0.00000000
  1 80 138       0.00000000
  1 80 139       0.00000000
  1 80 140       0.00000000
  1 80 141       0.00000000
  1 81 134       0.00000000
  1 81 135       0.00000000
  1 81 136       0.00000000
  1 81 137       0.00000000
  1 81 138       0.00000000
  1 81 139       0.00000000
  1 81 140       0.00000000
  1 81 141       0.00000000
  1 82 134       0.00000000
  1 82 135       0.00000000
  1 82 136       0.00000000
  1 82 137       0.00000000
  1 82 138       0.00000000
  1 82 139       0.00000000
  1 82 140       0.00000000
  1 82 141       0.00000000
  1 83 134       0.00000000
  1 83 135       0.00000000
  1 83 136       0.00000000
  1 83 139       0.00000000
  1 83 140       0.00000000
  1 83 141       0.00000000
  1 83 142       0.00000000
  1 84 138       0.00000000
  1 84 139       0.00000000
  1 84 140       0.00000000
  1 84 141       0.00000000
  1 84 142       0.00000000
  1 85 138       0.00000000
  1 85 139       0.00000000
  1 85 140       0.00000000
  1 85 141       0.00000000
  1 86 138       0.00000000
  1 86 139       0.00000000
  1 86 140       0.00000000
  1 86 141       0.00000000
  1 86 142       0.00000000
  1 87 138       0.00000000
  1 87 139       0.00000000
  1 87 140       0.00000000
  1 87 141       0.00000000
  1 87 142       0.00000000
  1 88 138       0.00000000
  1 88 139       0.00000000
  1 88 140       0.00000000
  1 88 141       0.00000000
  1 89 139       0.00000000
  1 89 140       0.00000000
  1 89 141       0.00000000
  1 89 142       0.00000000
  1 90 139       0.00000000
  1 90 140       0.00000000
  1 90 141       0.00000000
  1 90 142       0.00000000
  1 91 140       0.00000000
END period  1

