BEGIN options
  SAVE_FLOWS
END options

BEGIN dimensions
  MAXBOUND  227
END dimensions

BEGIN period  1
  1 9 89       0.00000000
  1 9 90       0.00000000
  1 10 83       0.00000000
  1 10 84       0.00000000
  1 10 86       0.00000000
  1 10 88       0.00000000
  1 10 89       0.00000000
  1 10 90       0.00000000
  1 11 82       0.00000000
  1 11 83       0.00000000
  1 11 84       0.00000000
  1 11 85       0.00000000
  1 11 86       0.00000000
  1 11 87       0.00000000
  1 11 88       0.00000000
  1 11 89       0.00000000
  1 11 90       0.00000000
  1 12 82       0.00000000
  1 12 83       0.00000000
  1 12 84       0.00000000
  1 12 85       0.00000000
  1 12 86       0.00000000
  1 12 87       0.00000000
  1 12 88       0.00000000
  1 12 89       0.00000000
  1 12 90       0.00000000
  1 13 82       0.00000000
  1 13 83       0.00000000
  1 13 84       0.00000000
  1 13 85       0.00000000
  1 13 86       0.00000000
  1 13 87       0.00000000
  1 13 88       0.00000000
  1 13 89       0.00000000
  1 14 82       0.00000000
  1 14 83       0.00000000
  1 14 84       0.00000000
  1 14 85       0.00000000
  1 14 86       0.00000000
  1 14 87       0.00000000
  1 14 88       0.00000000
  1 15 81       0.00000000
  1 15 82       0.00000000
  1 15 83       0.00000000
  1 15 84       0.00000000
  1 15 85       0.00000000
  1 15 86       0.00000000
  1 15 87       0.00000000
  1 15 88       0.00000000
  1 16 81       0.00000000
  1 16 82       0.00000000
  1 16 83       0.00000000
  1 16 84       0.00000000
  1 16 85       0.00000000
  1 16 86       0.00000000
  1 16 87       0.00000000
  1 17 79       0.00000000
  1 17 80       0.00000000
  1 17 81       0.00000000
  1 17 82       0.00000000
  1 17 83       0.00000000
  1 17 84       0.00000000
  1 17 85       0.00000000
  1 17 86       0.00000000
  1 17 87       0.00000000
  1 18 78       0.00000000
  1 18 79       0.00000000
  1 18 80       0.00000000
  1 18 81       0.00000000
  1 18 82       0.00000000
  1 18 83       0.00000000
  1 18 84       0.00000000
  1 18 85       0.00000000
  1 18 86       0.00000000
  1 18 87       0.00000000
  1 19 76       0.00000000
  1 19 77       0.00000000
  1 19 78       0.00000000
  1 19 79       0.00000000
  1 19 80       0.00000000
  1 19 81       0.00000000
  1 19 82       0.00000000
  1 19 83       0.00000000
  1 19 84       0.00000000
  1 19 85       0.00000000
  1 19 86       0.00000000
  1 19 87       0.00000000
  1 20 75       0.00000000
  1 20 76       0.00000000
  1 20 77       0.00000000
  1 20 78       0.00000000
  1 20 79       0.00000000
  1 20 80       0.00000000
  1 20 81       0.00000000
  1 20 82       0.00000000
  1 20 83       0.00000000
  1 20 84       0.00000000
  1 20 85       0.00000000
  1 20 86       0.00000000
  1 20 87       0.00000000
  1 20 88       0.00000000
  1 21 75       0.00000000
  1 21 76       0.00000000
  1 21 77       0.00000000
  1 21 78       0.00000000
  1 21 79       0.00000000
  1 21 80       0.00000000
  1 21 81       0.00000000
  1 21 82       0.00000000
  1 21 83       0.00000000
  1 21 84       0.00000000
  1 21 85       0.00000000
  1 21 86       0.00000000
  1 21 88       0.00000000
  1 22 74       0.00000000
  1 22 75       0.00000000
  1 22 76       0.00000000
  1 22 77       0.00000000
  1 22 78       0.00000000
  1 22 79       0.00000000
  1 22 80       0.00000000
  1 22 81       0.00000000
  1 22 82       0.00000000
  1 22 83       0.00000000
  1 22 84       0.00000000
  1 22 85       0.00000000
  1 22 86       0.00000000
  1 23 74       0.00000000
  1 23 76       0.00000000
  1 23 77       0.00000000
  1 23 78       0.00000000
  1 23 79       0.00000000
  1 23 80       0.00000000
  1 23 81       0.00000000
  1 23 82       0.00000000
  1 23 83       0.00000000
  1 23 84       0.00000000
  1 23 85       0.00000000
  1 23 86       0.00000000
  1 23 87       0.00000000
  1 24 76       0.00000000
  1 24 77       0.00000000
  1 24 78       0.00000000
  1 24 79       0.00000000
  1 24 80       0.00000000
  1 24 81       0.00000000
  1 24 82       0.00000000
  1 24 83       0.00000000
  1 24 84       0.00000000
  1 24 85       0.00000000
  1 24 86       0.00000000
  1 24 87       0.00000000
  1 25 77       0.00000000
  1 25 78       0.00000000
  1 25 79       0.00000000
  1 25 80       0.00000000
  1 25 81       0.00000000
  1 25 82       0.00000000
  1 25 83       0.00000000
  1 25 84       0.00000000
  1 25 85       0.00000000
  1 25 86       0.00000000
  1 26 77       0.00000000
  1 26 78       0.00000000
  1 26 79       0.00000000
  1 26 80       0.00000000
  1 26 81       0.00000000
  1 26 82       0.00000000
  1 26 83       0.00000000
  1 26 84       0.00000000
  1 26 85       0.00000000
  1 26 86       0.00000000
  1 27 77       0.00000000
  1 27 78       0.00000000
  1 27 79       0.00000000
  1 27 80       0.00000000
  1 27 81       0.00000000
  1 27 82       0.00000000
  1 27 83       0.00000000
  1 27 84       0.00000000
  1 27 85       0.00000000
  1 28 78       0.00000000
  1 28 79       0.00000000
  1 28 80       0.00000000
  1 28 81       0.00000000
  1 28 82       0.00000000
  1 28 83       0.00000000
  1 28 84       0.00000000
  1 28 85       0.00000000
  1 28 86       0.00000000
  1 29 79       0.00000000
  1 29 80       0.00000000
  1 29 81       0.00000000
  1 29 82       0.00000000
  1 29 83       0.00000000
  1 29 86       0.00000000
  1 53 83       0.00000000
  1 53 84       0.00000000
  1 53 85       0.00000000
  1 53 86       0.00000000
  1 54 82       0.00000000
  1 54 83       0.00000000
  1 54 84       0.00000000
  1 54 85       0.00000000
  1 54 86       0.00000000
  1 55 82       0.00000000
  1 55 83       0.00000000
  1 55 84       0.00000000
  1 55 85       0.00000000
  1 55 86       0.00000000
  1 55 87       0.00000000
  1 56 85       0.00000000
  1 56 86       0.00000000
  1 56 87       0.00000000
  1 57 85       0.00000000
  1 57 86       0.00000000
  1 57 87       0.00000000
  1 58 85       0.00000000
  1 58 86       0.00000000
  1 58 87       0.00000000
  1 59 85       0.00000000
  1 59 86       0.00000000
  1 59 87       0.00000000
  1 60 85       0.00000000
  1 60 86       0.00000000
  1 60 87       0.00000000
  1 61 86       0.00000000
END period  1

