BEGIN options
  SAVE_FLOWS
END options

BEGIN dimensions
  MAXBOUND  1420
END dimensions

BEGIN period  1
  1 21 235       0.00000000
  1 21 236       0.00000000
  1 21 237       0.00000000
  1 21 238       0.00000000
  1 22 236       0.00000000
  1 22 237       0.00000000
  1 22 238       0.00000000
  1 22 239       0.00000000
  1 23 236       0.00000000
  1 23 237       0.00000000
  1 23 238       0.00000000
  1 23 239       0.00000000
  1 24 221       0.00000000
  1 24 222       0.00000000
  1 24 223       0.00000000
  1 24 224       0.00000000
  1 24 234       0.00000000
  1 24 235       0.00000000
  1 24 236       0.00000000
  1 24 237       0.00000000
  1 24 238       0.00000000
  1 24 239       0.00000000
  1 25 219       0.00000000
  1 25 220       0.00000000
  1 25 221       0.00000000
  1 25 222       0.00000000
  1 25 223       0.00000000
  1 25 224       0.00000000
  1 25 225       0.00000000
  1 25 226       0.00000000
  1 25 227       0.00000000
  1 25 228       0.00000000
  1 25 229       0.00000000
  1 25 230       0.00000000
  1 25 232       0.00000000
  1 25 233       0.00000000
  1 25 234       0.00000000
  1 25 235       0.00000000
  1 25 236       0.00000000
  1 25 237       0.00000000
  1 25 238       0.00000000
  1 25 239       0.00000000
  1 26 218       0.00000000
  1 26 219       0.00000000
  1 26 220       0.00000000
  1 26 221       0.00000000
  1 26 222       0.00000000
  1 26 223       0.00000000
  1 26 224       0.00000000
  1 26 225       0.00000000
  1 26 226       0.00000000
  1 26 227       0.00000000
  1 26 228       0.00000000
  1 26 229       0.00000000
  1 26 230       0.00000000
  1 26 231       0.00000000
  1 26 232       0.00000000
  1 26 233       0.00000000
  1 26 234       0.00000000
  1 26 235       0.00000000
  1 26 236       0.00000000
  1 26 237       0.00000000
  1 26 238       0.00000000
  1 26 239       0.00000000
  1 27 217       0.00000000
  1 27 218       0.00000000
  1 27 219       0.00000000
  1 27 220       0.00000000
  1 27 221       0.00000000
  1 27 222       0.00000000
  1 27 223       0.00000000
  1 27 224       0.00000000
  1 27 225       0.00000000
  1 27 226       0.00000000
  1 27 227       0.00000000
  1 27 228       0.00000000
  1 27 229       0.00000000
  1 27 230       0.00000000
  1 27 231       0.00000000
  1 27 232       0.00000000
  1 27 233       0.00000000
  1 27 234       0.00000000
  1 27 235       0.00000000
  1 27 236       0.00000000
  1 27 237       0.00000000
  1 27 238       0.00000000
  1 27 239       0.00000000
  1 28 217       0.00000000
  1 28 218       0.00000000
  1 28 219       0.00000000
  1 28 220       0.00000000
  1 28 221       0.00000000
  1 28 222       0.00000000
  1 28 223       0.00000000
  1 28 224       0.00000000
  1 28 225       0.00000000
  1 28 226       0.00000000
  1 28 227       0.00000000
  1 28 228       0.00000000
  1 28 229       0.00000000
  1 28 230       0.00000000
  1 28 231       0.00000000
  1 28 232       0.00000000
  1 28 233       0.00000000
  1 28 234       0.00000000
  1 28 235       0.00000000
  1 28 236       0.00000000
  1 28 237       0.00000000
  1 28 238       0.00000000
  1 28 239       0.00000000
  1 29 217       0.00000000
  1 29 218       0.00000000
  1 29 219       0.00000000
  1 29 220       0.00000000
  1 29 221       0.00000000
  1 29 222       0.00000000
  1 29 223       0.00000000
  1 29 224       0.00000000
  1 29 225       0.00000000
  1 29 226       0.00000000
  1 29 227       0.00000000
  1 29 228       0.00000000
  1 29 229       0.00000000
  1 29 230       0.00000000
  1 29 231       0.00000000
  1 29 232       0.00000000
  1 29 233       0.00000000
  1 29 234       0.00000000
  1 29 235       0.00000000
  1 29 236       0.00000000
  1 29 237       0.00000000
  1 29 238       0.00000000
  1 29 239       0.00000000
  1 30 216       0.00000000
  1 30 217       0.00000000
  1 30 218       0.00000000
  1 30 219       0.00000000
  1 30 220       0.00000000
  1 30 221       0.00000000
  1 30 222       0.00000000
  1 30 223       0.00000000
  1 30 224       0.00000000
  1 30 225       0.00000000
  1 30 226       0.00000000
  1 30 227       0.00000000
  1 30 228       0.00000000
  1 30 229       0.00000000
  1 30 230       0.00000000
  1 30 231       0.00000000
  1 30 232       0.00000000
  1 30 233       0.00000000
  1 30 234       0.00000000
  1 30 235       0.00000000
  1 30 236       0.00000000
  1 30 237       0.00000000
  1 30 238       0.00000000
  1 31 216       0.00000000
  1 31 217       0.00000000
  1 31 218       0.00000000
  1 31 219       0.00000000
  1 31 220       0.00000000
  1 31 221       0.00000000
  1 31 222       0.00000000
  1 31 223       0.00000000
  1 31 224       0.00000000
  1 31 225       0.00000000
  1 31 226       0.00000000
  1 31 227       0.00000000
  1 31 228       0.00000000
  1 31 229       0.00000000
  1 31 230       0.00000000
  1 31 231       0.00000000
  1 31 232       0.00000000
  1 31 233       0.00000000
  1 31 234       0.00000000
  1 31 235       0.00000000
  1 31 236       0.00000000
  1 31 237       0.00000000
  1 32 216       0.00000000
  1 32 217       0.00000000
  1 32 218       0.00000000
  1 32 219       0.00000000
  1 32 220       0.00000000
  1 32 221       0.00000000
  1 32 222       0.00000000
  1 32 223       0.00000000
  1 32 224       0.00000000
  1 32 225       0.00000000
  1 32 226       0.00000000
  1 32 227       0.00000000
  1 32 228       0.00000000
  1 32 229       0.00000000
  1 32 230       0.00000000
  1 32 231       0.00000000
  1 32 232       0.00000000
  1 32 233       0.00000000
  1 32 234       0.00000000
  1 32 235       0.00000000
  1 32 236       0.00000000
  1 32 237       0.00000000
  1 33 216       0.00000000
  1 33 217       0.00000000
  1 33 218       0.00000000
  1 33 219       0.00000000
  1 33 220       0.00000000
  1 33 221       0.00000000
  1 33 222       0.00000000
  1 33 223       0.00000000
  1 33 224       0.00000000
  1 33 225       0.00000000
  1 33 226       0.00000000
  1 33 227       0.00000000
  1 33 228       0.00000000
  1 33 229       0.00000000
  1 33 230       0.00000000
  1 33 231       0.00000000
  1 33 232       0.00000000
  1 33 233       0.00000000
  1 33 234       0.00000000
  1 33 235       0.00000000
  1 33 236       0.00000000
  1 34 218       0.00000000
  1 34 219       0.00000000
  1 34 220       0.00000000
  1 34 221       0.00000000
  1 34 222       0.00000000
  1 34 223       0.00000000
  1 34 224       0.00000000
  1 34 225       0.00000000
  1 34 226       0.00000000
  1 34 227       0.00000000
  1 34 228       0.00000000
  1 34 229       0.00000000
  1 34 230       0.00000000
  1 34 231       0.00000000
  1 34 232       0.00000000
  1 34 233       0.00000000
  1 34 234       0.00000000
  1 34 235       0.00000000
  1 35 218       0.00000000
  1 35 219       0.00000000
  1 35 220       0.00000000
  1 35 221       0.00000000
  1 35 222       0.00000000
  1 35 223       0.00000000
  1 35 224       0.00000000
  1 35 225       0.00000000
  1 35 226       0.00000000
  1 35 227       0.00000000
  1 35 228       0.00000000
  1 35 229       0.00000000
  1 35 230       0.00000000
  1 35 231       0.00000000
  1 35 232       0.00000000
  1 35 233       0.00000000
  1 35 234       0.00000000
  1 35 235       0.00000000
  1 36 216       0.00000000
  1 36 218       0.00000000
  1 36 219       0.00000000
  1 36 220       0.00000000
  1 36 221       0.00000000
  1 36 222       0.00000000
  1 36 223       0.00000000
  1 36 224       0.00000000
  1 36 225       0.00000000
  1 36 226       0.00000000
  1 36 227       0.00000000
  1 36 228       0.00000000
  1 36 229       0.00000000
  1 36 230       0.00000000
  1 36 231       0.00000000
  1 36 232       0.00000000
  1 36 233       0.00000000
  1 36 234       0.00000000
  1 37 215       0.00000000
  1 37 216       0.00000000
  1 37 217       0.00000000
  1 37 218       0.00000000
  1 37 219       0.00000000
  1 37 220       0.00000000
  1 37 221       0.00000000
  1 37 222       0.00000000
  1 37 223       0.00000000
  1 37 224       0.00000000
  1 37 225       0.00000000
  1 37 226       0.00000000
  1 37 227       0.00000000
  1 37 228       0.00000000
  1 37 229       0.00000000
  1 37 230       0.00000000
  1 37 231       0.00000000
  1 37 232       0.00000000
  1 37 233       0.00000000
  1 38 215       0.00000000
  1 38 216       0.00000000
  1 38 217       0.00000000
  1 38 218       0.00000000
  1 38 219       0.00000000
  1 38 220       0.00000000
  1 38 221       0.00000000
  1 38 222       0.00000000
  1 38 223       0.00000000
  1 38 224       0.00000000
  1 38 225       0.00000000
  1 38 226       0.00000000
  1 38 227       0.00000000
  1 38 228       0.00000000
  1 38 229       0.00000000
  1 38 230       0.00000000
  1 38 231       0.00000000
  1 38 232       0.00000000
  1 39 214       0.00000000
  1 39 215       0.00000000
  1 39 216       0.00000000
  1 39 217       0.00000000
  1 39 218       0.00000000
  1 39 219       0.00000000
  1 39 220       0.00000000
  1 39 221       0.00000000
  1 39 222       0.00000000
  1 39 223       0.00000000
  1 39 224       0.00000000
  1 39 225       0.00000000
  1 39 226       0.00000000
  1 39 227       0.00000000
  1 39 228       0.00000000
  1 39 229       0.00000000
  1 39 230       0.00000000
  1 39 231       0.00000000
  1 39 232       0.00000000
  1 40 214       0.00000000
  1 40 215       0.00000000
  1 40 216       0.00000000
  1 40 217       0.00000000
  1 40 218       0.00000000
  1 40 219       0.00000000
  1 40 220       0.00000000
  1 40 221       0.00000000
  1 40 222       0.00000000
  1 40 223       0.00000000
  1 40 224       0.00000000
  1 40 225       0.00000000
  1 40 226       0.00000000
  1 40 227       0.00000000
  1 40 228       0.00000000
  1 40 229       0.00000000
  1 40 230       0.00000000
  1 40 231       0.00000000
  1 41 212       0.00000000
  1 41 213       0.00000000
  1 41 214       0.00000000
  1 41 215       0.00000000
  1 41 216       0.00000000
  1 41 217       0.00000000
  1 41 218       0.00000000
  1 41 219       0.00000000
  1 41 220       0.00000000
  1 41 221       0.00000000
  1 41 222       0.00000000
  1 41 223       0.00000000
  1 41 224       0.00000000
  1 41 225       0.00000000
  1 41 226       0.00000000
  1 41 227       0.00000000
  1 41 228       0.00000000
  1 41 229       0.00000000
  1 41 230       0.00000000
  1 42 208       0.00000000
  1 42 209       0.00000000
  1 42 210       0.00000000
  1 42 211       0.00000000
  1 42 212       0.00000000
  1 42 213       0.00000000
  1 42 214       0.00000000
  1 42 215       0.00000000
  1 42 216       0.00000000
  1 42 217       0.00000000
  1 42 218       0.00000000
  1 42 219       0.00000000
  1 42 220       0.00000000
  1 42 221       0.00000000
  1 42 222       0.00000000
  1 42 223       0.00000000
  1 42 224       0.00000000
  1 42 225       0.00000000
  1 42 226       0.00000000
  1 42 227       0.00000000
  1 42 228       0.00000000
  1 42 229       0.00000000
  1 42 230       0.00000000
  1 43 207       0.00000000
  1 43 208       0.00000000
  1 43 209       0.00000000
  1 43 210       0.00000000
  1 43 211       0.00000000
  1 43 212       0.00000000
  1 43 213       0.00000000
  1 43 214       0.00000000
  1 43 215       0.00000000
  1 43 216       0.00000000
  1 43 217       0.00000000
  1 43 218       0.00000000
  1 43 219       0.00000000
  1 43 220       0.00000000
  1 43 221       0.00000000
  1 43 222       0.00000000
  1 43 223       0.00000000
  1 43 224       0.00000000
  1 43 225       0.00000000
  1 43 226       0.00000000
  1 43 227       0.00000000
  1 43 228       0.00000000
  1 43 229       0.00000000
  1 43 230       0.00000000
  1 44 206       0.00000000
  1 44 207       0.00000000
  1 44 208       0.00000000
  1 44 209       0.00000000
  1 44 210       0.00000000
  1 44 211       0.00000000
  1 44 212       0.00000000
  1 44 213       0.00000000
  1 44 214       0.00000000
  1 44 215       0.00000000
  1 44 216       0.00000000
  1 44 217       0.00000000
  1 44 218       0.00000000
  1 44 219       0.00000000
  1 44 220       0.00000000
  1 44 221       0.00000000
  1 44 222       0.00000000
  1 44 223       0.00000000
  1 44 224       0.00000000
  1 44 225       0.00000000
  1 44 226       0.00000000
  1 44 227       0.00000000
  1 44 229       0.00000000
  1 44 230       0.00000000
  1 45 205       0.00000000
  1 45 206       0.00000000
  1 45 207       0.00000000
  1 45 208       0.00000000
  1 45 209       0.00000000
  1 45 210       0.00000000
  1 45 211       0.00000000
  1 45 212       0.00000000
  1 45 213       0.00000000
  1 45 214       0.00000000
  1 45 215       0.00000000
  1 45 216       0.00000000
  1 45 217       0.00000000
  1 45 218       0.00000000
  1 45 219       0.00000000
  1 45 220       0.00000000
  1 45 221       0.00000000
  1 45 222       0.00000000
  1 45 223       0.00000000
  1 45 224       0.00000000
  1 45 225       0.00000000
  1 45 226       0.00000000
  1 45 227       0.00000000
  1 45 229       0.00000000
  1 45 230       0.00000000
  1 46 202       0.00000000
  1 46 203       0.00000000
  1 46 204       0.00000000
  1 46 205       0.00000000
  1 46 206       0.00000000
  1 46 207       0.00000000
  1 46 208       0.00000000
  1 46 209       0.00000000
  1 46 210       0.00000000
  1 46 211       0.00000000
  1 46 212       0.00000000
  1 46 213       0.00000000
  1 46 214       0.00000000
  1 46 215       0.00000000
  1 46 216       0.00000000
  1 46 217       0.00000000
  1 46 218       0.00000000
  1 46 219       0.00000000
  1 46 220       0.00000000
  1 46 221       0.00000000
  1 46 222       0.00000000
  1 46 223       0.00000000
  1 46 224       0.00000000
  1 46 225       0.00000000
  1 46 226       0.00000000
  1 46 227       0.00000000
  1 46 229       0.00000000
  1 46 230       0.00000000
  1 46 231       0.00000000
  1 46 232       0.00000000
  1 47 201       0.00000000
  1 47 202       0.00000000
  1 47 203       0.00000000
  1 47 204       0.00000000
  1 47 205       0.00000000
  1 47 206       0.00000000
  1 47 207       0.00000000
  1 47 208       0.00000000
  1 47 209       0.00000000
  1 47 210       0.00000000
  1 47 211       0.00000000
  1 47 212       0.00000000
  1 47 213       0.00000000
  1 47 214       0.00000000
  1 47 215       0.00000000
  1 47 216       0.00000000
  1 47 217       0.00000000
  1 47 218       0.00000000
  1 47 219       0.00000000
  1 47 220       0.00000000
  1 47 221       0.00000000
  1 47 222       0.00000000
  1 47 223       0.00000000
  1 47 224       0.00000000
  1 47 225       0.00000000
  1 47 226       0.00000000
  1 47 227       0.00000000
  1 47 228       0.00000000
  1 47 229       0.00000000
  1 47 230       0.00000000
  1 47 231       0.00000000
  1 48 200       0.00000000
  1 48 201       0.00000000
  1 48 202       0.00000000
  1 48 203       0.00000000
  1 48 204       0.00000000
  1 48 205       0.00000000
  1 48 206       0.00000000
  1 48 207       0.00000000
  1 48 208       0.00000000
  1 48 209       0.00000000
  1 48 210       0.00000000
  1 48 211       0.00000000
  1 48 212       0.00000000
  1 48 213       0.00000000
  1 48 214       0.00000000
  1 48 215       0.00000000
  1 48 216       0.00000000
  1 48 217       0.00000000
  1 48 218       0.00000000
  1 48 219       0.00000000
  1 48 220       0.00000000
  1 48 221       0.00000000
  1 48 222       0.00000000
  1 48 223       0.00000000
  1 48 224       0.00000000
  1 48 225       0.00000000
  1 48 226       0.00000000
  1 48 228       0.00000000
  1 48 229       0.00000000
  1 48 230       0.00000000
  1 48 231       0.00000000
  1 48 232       0.00000000
  1 48 233       0.00000000
  1 49 199       0.00000000
  1 49 200       0.00000000
  1 49 201       0.00000000
  1 49 202       0.00000000
  1 49 203       0.00000000
  1 49 204       0.00000000
  1 49 205       0.00000000
  1 49 206       0.00000000
  1 49 207       0.00000000
  1 49 208       0.00000000
  1 49 209       0.00000000
  1 49 210       0.00000000
  1 49 211       0.00000000
  1 49 212       0.00000000
  1 49 213       0.00000000
  1 49 214       0.00000000
  1 49 215       0.00000000
  1 49 216       0.00000000
  1 49 217       0.00000000
  1 49 218       0.00000000
  1 49 219       0.00000000
  1 49 220       0.00000000
  1 49 221       0.00000000
  1 49 222       0.00000000
  1 49 223       0.00000000
  1 49 224       0.00000000
  1 49 225       0.00000000
  1 49 227       0.00000000
  1 49 228       0.00000000
  1 49 229       0.00000000
  1 49 230       0.00000000
  1 49 233       0.00000000
  1 50 199       0.00000000
  1 50 200       0.00000000
  1 50 201       0.00000000
  1 50 202       0.00000000
  1 50 203       0.00000000
  1 50 204       0.00000000
  1 50 205       0.00000000
  1 50 206       0.00000000
  1 50 207       0.00000000
  1 50 208       0.00000000
  1 50 209       0.00000000
  1 50 210       0.00000000
  1 50 211       0.00000000
  1 50 212       0.00000000
  1 50 213       0.00000000
  1 50 214       0.00000000
  1 50 215       0.00000000
  1 50 216       0.00000000
  1 50 217       0.00000000
  1 50 218       0.00000000
  1 50 219       0.00000000
  1 50 220       0.00000000
  1 50 221       0.00000000
  1 50 222       0.00000000
  1 50 223       0.00000000
  1 50 224       0.00000000
  1 50 225       0.00000000
  1 50 226       0.00000000
  1 50 227       0.00000000
  1 50 228       0.00000000
  1 50 229       0.00000000
  1 50 230       0.00000000
  1 50 233       0.00000000
  1 51 198       0.00000000
  1 51 199       0.00000000
  1 51 200       0.00000000
  1 51 201       0.00000000
  1 51 202       0.00000000
  1 51 203       0.00000000
  1 51 204       0.00000000
  1 51 205       0.00000000
  1 51 206       0.00000000
  1 51 207       0.00000000
  1 51 208       0.00000000
  1 51 209       0.00000000
  1 51 210       0.00000000
  1 51 211       0.00000000
  1 51 212       0.00000000
  1 51 213       0.00000000
  1 51 214       0.00000000
  1 51 215       0.00000000
  1 51 216       0.00000000
  1 51 217       0.00000000
  1 51 218       0.00000000
  1 51 219       0.00000000
  1 51 220       0.00000000
  1 51 221       0.00000000
  1 51 222       0.00000000
  1 51 223       0.00000000
  1 51 224       0.00000000
  1 51 225       0.00000000
  1 51 226       0.00000000
  1 51 227       0.00000000
  1 51 228       0.00000000
  1 51 229       0.00000000
  1 51 230       0.00000000
  1 51 232       0.00000000
  1 51 233       0.00000000
  1 52 198       0.00000000
  1 52 199       0.00000000
  1 52 200       0.00000000
  1 52 201       0.00000000
  1 52 202       0.00000000
  1 52 203       0.00000000
  1 52 204       0.00000000
  1 52 205       0.00000000
  1 52 206       0.00000000
  1 52 207       0.00000000
  1 52 208       0.00000000
  1 52 209       0.00000000
  1 52 210       0.00000000
  1 52 211       0.00000000
  1 52 212       0.00000000
  1 52 213       0.00000000
  1 52 214       0.00000000
  1 52 215       0.00000000
  1 52 216       0.00000000
  1 52 217       0.00000000
  1 52 218       0.00000000
  1 52 219       0.00000000
  1 52 220       0.00000000
  1 52 221       0.00000000
  1 52 222       0.00000000
  1 52 223       0.00000000
  1 52 224       0.00000000
  1 52 225       0.00000000
  1 52 226       0.00000000
  1 52 227       0.00000000
  1 52 228       0.00000000
  1 52 229       0.00000000
  1 52 232       0.00000000
  1 52 233       0.00000000
  1 53 198       0.00000000
  1 53 199       0.00000000
  1 53 200       0.00000000
  1 53 201       0.00000000
  1 53 202       0.00000000
  1 53 203       0.00000000
  1 53 204       0.00000000
  1 53 205       0.00000000
  1 53 206       0.00000000
  1 53 207       0.00000000
  1 53 208       0.00000000
  1 53 209       0.00000000
  1 53 210       0.00000000
  1 53 211       0.00000000
  1 53 212       0.00000000
  1 53 213       0.00000000
  1 53 214       0.00000000
  1 53 215       0.00000000
  1 53 216       0.00000000
  1 53 217       0.00000000
  1 53 218       0.00000000
  1 53 219       0.00000000
  1 53 220       0.00000000
  1 53 221       0.00000000
  1 53 222       0.00000000
  1 53 223       0.00000000
  1 53 224       0.00000000
  1 53 225       0.00000000
  1 53 226       0.00000000
  1 53 227       0.00000000
  1 53 228       0.00000000
  1 53 233       0.00000000
  1 54 197       0.00000000
  1 54 198       0.00000000
  1 54 199       0.00000000
  1 54 200       0.00000000
  1 54 201       0.00000000
  1 54 202       0.00000000
  1 54 203       0.00000000
  1 54 204       0.00000000
  1 54 205       0.00000000
  1 54 206       0.00000000
  1 54 207       0.00000000
  1 54 208       0.00000000
  1 54 209       0.00000000
  1 54 210       0.00000000
  1 54 211       0.00000000
  1 54 212       0.00000000
  1 54 213       0.00000000
  1 54 214       0.00000000
  1 54 215       0.00000000
  1 54 216       0.00000000
  1 54 217       0.00000000
  1 54 218       0.00000000
  1 54 219       0.00000000
  1 54 220       0.00000000
  1 54 221       0.00000000
  1 54 222       0.00000000
  1 54 223       0.00000000
  1 54 224       0.00000000
  1 54 225       0.00000000
  1 54 226       0.00000000
  1 55 196       0.00000000
  1 55 197       0.00000000
  1 55 198       0.00000000
  1 55 199       0.00000000
  1 55 200       0.00000000
  1 55 201       0.00000000
  1 55 202       0.00000000
  1 55 203       0.00000000
  1 55 204       0.00000000
  1 55 205       0.00000000
  1 55 206       0.00000000
  1 55 207       0.00000000
  1 55 208       0.00000000
  1 55 209       0.00000000
  1 55 210       0.00000000
  1 55 211       0.00000000
  1 55 212       0.00000000
  1 55 213       0.00000000
  1 55 214       0.00000000
  1 55 215       0.00000000
  1 55 216       0.00000000
  1 55 217       0.00000000
  1 55 218       0.00000000
  1 55 219       0.00000000
  1 55 220       0.00000000
  1 55 221       0.00000000
  1 55 222       0.00000000
  1 55 223       0.00000000
  1 55 224       0.00000000
  1 55 225       0.00000000
  1 55 226       0.00000000
  1 55 227       0.00000000
  1 55 228       0.00000000
  1 55 229       0.00000000
  1 55 230       0.00000000
  1 55 232       0.00000000
  1 55 233       0.00000000
  1 56 195       0.00000000
  1 56 196       0.00000000
  1 56 197       0.00000000
  1 56 198       0.00000000
  1 56 201       0.00000000
  1 56 202       0.00000000
  1 56 203       0.00000000
  1 56 204       0.00000000
  1 56 205       0.00000000
  1 56 206       0.00000000
  1 56 207       0.00000000
  1 56 208       0.00000000
  1 56 209       0.00000000
  1 56 210       0.00000000
  1 56 211       0.00000000
  1 56 212       0.00000000
  1 56 213       0.00000000
  1 56 214       0.00000000
  1 56 215       0.00000000
  1 56 216       0.00000000
  1 56 217       0.00000000
  1 56 218       0.00000000
  1 56 219       0.00000000
  1 56 220       0.00000000
  1 56 221       0.00000000
  1 56 222       0.00000000
  1 56 223       0.00000000
  1 56 224       0.00000000
  1 56 225       0.00000000
  1 56 226       0.00000000
  1 56 227       0.00000000
  1 56 228       0.00000000
  1 56 229       0.00000000
  1 56 230       0.00000000
  1 56 231       0.00000000
  1 56 232       0.00000000
  1 56 233       0.00000000
  1 57 196       0.00000000
  1 57 197       0.00000000
  1 57 202       0.00000000
  1 57 203       0.00000000
  1 57 204       0.00000000
  1 57 205       0.00000000
  1 57 206       0.00000000
  1 57 207       0.00000000
  1 57 208       0.00000000
  1 57 209       0.00000000
  1 57 210       0.00000000
  1 57 211       0.00000000
  1 57 212       0.00000000
  1 57 213       0.00000000
  1 57 214       0.00000000
  1 57 215       0.00000000
  1 57 216       0.00000000
  1 57 217       0.00000000
  1 57 218       0.00000000
  1 57 219       0.00000000
  1 57 220       0.00000000
  1 57 221       0.00000000
  1 57 222       0.00000000
  1 57 223       0.00000000
  1 57 224       0.00000000
  1 57 225       0.00000000
  1 57 227       0.00000000
  1 57 228       0.00000000
  1 57 229       0.00000000
  1 57 230       0.00000000
  1 57 231       0.00000000
  1 57 232       0.00000000
  1 57 233       0.00000000
  1 58 201       0.00000000
  1 58 202       0.00000000
  1 58 203       0.00000000
  1 58 204       0.00000000
  1 58 205       0.00000000
  1 58 206       0.00000000
  1 58 207       0.00000000
  1 58 208       0.00000000
  1 58 209       0.00000000
  1 58 210       0.00000000
  1 58 211       0.00000000
  1 58 212       0.00000000
  1 58 213       0.00000000
  1 58 214       0.00000000
  1 58 215       0.00000000
  1 58 216       0.00000000
  1 58 217       0.00000000
  1 58 218       0.00000000
  1 58 219       0.00000000
  1 58 220       0.00000000
  1 58 221       0.00000000
  1 58 222       0.00000000
  1 58 223       0.00000000
  1 58 224       0.00000000
  1 58 227       0.00000000
  1 58 228       0.00000000
  1 58 229       0.00000000
  1 58 230       0.00000000
  1 58 231       0.00000000
  1 59 202       0.00000000
  1 59 203       0.00000000
  1 59 204       0.00000000
  1 59 205       0.00000000
  1 59 206       0.00000000
  1 59 207       0.00000000
  1 59 208       0.00000000
  1 59 209       0.00000000
  1 59 210       0.00000000
  1 59 211       0.00000000
  1 59 212       0.00000000
  1 59 213       0.00000000
  1 59 214       0.00000000
  1 59 215       0.00000000
  1 59 216       0.00000000
  1 59 217       0.00000000
  1 59 218       0.00000000
  1 59 219       0.00000000
  1 59 220       0.00000000
  1 59 221       0.00000000
  1 59 222       0.00000000
  1 59 223       0.00000000
  1 59 224       0.00000000
  1 59 227       0.00000000
  1 59 228       0.00000000
  1 59 229       0.00000000
  1 59 230       0.00000000
  1 59 232       0.00000000
  1 60 203       0.00000000
  1 60 204       0.00000000
  1 60 205       0.00000000
  1 60 206       0.00000000
  1 60 207       0.00000000
  1 60 208       0.00000000
  1 60 209       0.00000000
  1 60 210       0.00000000
  1 60 211       0.00000000
  1 60 212       0.00000000
  1 60 213       0.00000000
  1 60 214       0.00000000
  1 60 215       0.00000000
  1 60 216       0.00000000
  1 60 217       0.00000000
  1 60 218       0.00000000
  1 60 219       0.00000000
  1 60 220       0.00000000
  1 60 221       0.00000000
  1 60 222       0.00000000
  1 60 223       0.00000000
  1 60 224       0.00000000
  1 60 225       0.00000000
  1 60 226       0.00000000
  1 60 227       0.00000000
  1 60 228       0.00000000
  1 60 229       0.00000000
  1 60 230       0.00000000
  1 60 231       0.00000000
  1 61 203       0.00000000
  1 61 204       0.00000000
  1 61 205       0.00000000
  1 61 206       0.00000000
  1 61 207       0.00000000
  1 61 208       0.00000000
  1 61 209       0.00000000
  1 61 210       0.00000000
  1 61 211       0.00000000
  1 61 212       0.00000000
  1 61 213       0.00000000
  1 61 214       0.00000000
  1 61 215       0.00000000
  1 61 216       0.00000000
  1 61 217       0.00000000
  1 61 218       0.00000000
  1 61 219       0.00000000
  1 61 220       0.00000000
  1 61 221       0.00000000
  1 61 222       0.00000000
  1 61 223       0.00000000
  1 61 224       0.00000000
  1 61 225       0.00000000
  1 61 226       0.00000000
  1 61 227       0.00000000
  1 61 228       0.00000000
  1 61 229       0.00000000
  1 61 231       0.00000000
  1 62 203       0.00000000
  1 62 204       0.00000000
  1 62 205       0.00000000
  1 62 206       0.00000000
  1 62 207       0.00000000
  1 62 208       0.00000000
  1 62 209       0.00000000
  1 62 210       0.00000000
  1 62 211       0.00000000
  1 62 212       0.00000000
  1 62 213       0.00000000
  1 62 214       0.00000000
  1 62 215       0.00000000
  1 62 216       0.00000000
  1 62 217       0.00000000
  1 62 218       0.00000000
  1 62 219       0.00000000
  1 62 220       0.00000000
  1 62 221       0.00000000
  1 62 222       0.00000000
  1 62 223       0.00000000
  1 62 224       0.00000000
  1 62 225       0.00000000
  1 62 226       0.00000000
  1 62 228       0.00000000
  1 62 230       0.00000000
  1 63 203       0.00000000
  1 63 204       0.00000000
  1 63 205       0.00000000
  1 63 206       0.00000000
  1 63 207       0.00000000
  1 63 208       0.00000000
  1 63 209       0.00000000
  1 63 210       0.00000000
  1 63 211       0.00000000
  1 63 212       0.00000000
  1 63 213       0.00000000
  1 63 214       0.00000000
  1 63 215       0.00000000
  1 63 216       0.00000000
  1 63 217       0.00000000
  1 63 218       0.00000000
  1 63 219       0.00000000
  1 63 220       0.00000000
  1 63 221       0.00000000
  1 63 222       0.00000000
  1 63 223       0.00000000
  1 63 224       0.00000000
  1 63 225       0.00000000
  1 63 226       0.00000000
  1 63 227       0.00000000
  1 64 203       0.00000000
  1 64 204       0.00000000
  1 64 205       0.00000000
  1 64 206       0.00000000
  1 64 207       0.00000000
  1 64 208       0.00000000
  1 64 209       0.00000000
  1 64 210       0.00000000
  1 64 211       0.00000000
  1 64 212       0.00000000
  1 64 213       0.00000000
  1 64 214       0.00000000
  1 64 215       0.00000000
  1 64 216       0.00000000
  1 64 217       0.00000000
  1 64 218       0.00000000
  1 64 219       0.00000000
  1 64 220       0.00000000
  1 64 221       0.00000000
  1 64 222       0.00000000
  1 64 223       0.00000000
  1 64 224       0.00000000
  1 64 225       0.00000000
  1 64 226       0.00000000
  1 64 227       0.00000000
  1 64 228       0.00000000
  1 64 229       0.00000000
  1 64 230       0.00000000
  1 65 204       0.00000000
  1 65 205       0.00000000
  1 65 206       0.00000000
  1 65 207       0.00000000
  1 65 208       0.00000000
  1 65 209       0.00000000
  1 65 210       0.00000000
  1 65 211       0.00000000
  1 65 212       0.00000000
  1 65 213       0.00000000
  1 65 214       0.00000000
  1 65 215       0.00000000
  1 65 216       0.00000000