BEGIN options
  SAVE_FLOWS
END options

BEGIN dimensions
  MAXBOUND  1906
END dimensions

BEGIN period  1
  1 25 265       0.00000000
  1 25 266       0.00000000
  1 25 267       0.00000000
  1 26 265       0.00000000
  1 26 266       0.00000000
  1 26 267       0.00000000
  1 26 268       0.00000000
  1 26 269       0.00000000
  1 27 266       0.00000000
  1 27 267       0.00000000
  1 27 268       0.00000000
  1 27 269       0.00000000
  1 28 265       0.00000000
  1 28 266       0.00000000
  1 28 267       0.00000000
  1 28 268       0.00000000
  1 28 269       0.00000000
  1 29 249       0.00000000
  1 29 250       0.00000000
  1 29 251       0.00000000
  1 29 252       0.00000000
  1 29 263       0.00000000
  1 29 264       0.00000000
  1 29 265       0.00000000
  1 29 266       0.00000000
  1 29 267       0.00000000
  1 29 268       0.00000000
  1 29 269       0.00000000
  1 30 246       0.00000000
  1 30 247       0.00000000
  1 30 248       0.00000000
  1 30 249       0.00000000
  1 30 250       0.00000000
  1 30 251       0.00000000
  1 30 252       0.00000000
  1 30 253       0.00000000
  1 30 255       0.00000000
  1 30 256       0.00000000
  1 30 257       0.00000000
  1 30 258       0.00000000
  1 30 259       0.00000000
  1 30 261       0.00000000
  1 30 262       0.00000000
  1 30 263       0.00000000
  1 30 264       0.00000000
  1 30 265       0.00000000
  1 30 266       0.00000000
  1 30 267       0.00000000
  1 30 268       0.00000000
  1 30 269       0.00000000
  1 31 245       0.00000000
  1 31 246       0.00000000
  1 31 247       0.00000000
  1 31 248       0.00000000
  1 31 249       0.00000000
  1 31 250       0.00000000
  1 31 251       0.00000000
  1 31 252       0.00000000
  1 31 253       0.00000000
  1 31 254       0.00000000
  1 31 255       0.00000000
  1 31 256       0.00000000
  1 31 257       0.00000000
  1 31 258       0.00000000
  1 31 259       0.00000000
  1 31 260       0.00000000
  1 31 261       0.00000000
  1 31 262       0.00000000
  1 31 263       0.00000000
  1 31 264       0.00000000
  1 31 265       0.00000000
  1 31 266       0.00000000
  1 31 267       0.00000000
  1 31 268       0.00000000
  1 31 269       0.00000000
  1 32 245       0.00000000
  1 32 246       0.00000000
  1 32 247       0.00000000
  1 32 248       0.00000000
  1 32 249       0.00000000
  1 32 250       0.00000000
  1 32 251       0.00000000
  1 32 252       0.00000000
  1 32 253       0.00000000
  1 32 254       0.00000000
  1 32 255       0.00000000
  1 32 256       0.00000000
  1 32 257       0.00000000
  1 32 258       0.00000000
  1 32 259       0.00000000
  1 32 260       0.00000000
  1 32 261       0.00000000
  1 32 262       0.00000000
  1 32 263       0.00000000
  1 32 264       0.00000000
  1 32 265       0.00000000
  1 32 266       0.00000000
  1 32 267       0.00000000
  1 32 268       0.00000000
  1 32 269       0.00000000
  1 33 244       0.00000000
  1 33 245       0.00000000
  1 33 246       0.00000000
  1 33 247       0.00000000
  1 33 248       0.00000000
  1 33 249       0.00000000
  1 33 250       0.00000000
  1 33 251       0.00000000
  1 33 252       0.00000000
  1 33 253       0.00000000
  1 33 254       0.00000000
  1 33 255       0.00000000
  1 33 256       0.00000000
  1 33 257       0.00000000
  1 33 258       0.00000000
  1 33 259       0.00000000
  1 33 260       0.00000000
  1 33 261       0.00000000
  1 33 262       0.00000000
  1 33 263       0.00000000
  1 33 264       0.00000000
  1 33 265       0.00000000
  1 33 266       0.00000000
  1 33 267       0.00000000
  1 33 268       0.00000000
  1 33 269       0.00000000
  1 34 244       0.00000000
  1 34 245       0.00000000
  1 34 246       0.00000000
  1 34 247       0.00000000
  1 34 248       0.00000000
  1 34 249       0.00000000
  1 34 250       0.00000000
  1 34 251       0.00000000
  1 34 252       0.00000000
  1 34 253       0.00000000
  1 34 254       0.00000000
  1 34 255       0.00000000
  1 34 256       0.00000000
  1 34 257       0.00000000
  1 34 258       0.00000000
  1 34 259       0.00000000
  1 34 260       0.00000000
  1 34 261       0.00000000
  1 34 262       0.00000000
  1 34 263       0.00000000
  1 34 264       0.00000000
  1 34 265       0.00000000
  1 34 266       0.00000000
  1 34 267       0.00000000
  1 34 268       0.00000000
  1 34 269       0.00000000
  1 35 244       0.00000000
  1 35 245       0.00000000
  1 35 246       0.00000000
  1 35 247       0.00000000
  1 35 248       0.00000000
  1 35 249       0.00000000
  1 35 250       0.00000000
  1 35 251       0.00000000
  1 35 252       0.00000000
  1 35 253       0.00000000
  1 35 254       0.00000000
  1 35 255       0.00000000
  1 35 256       0.00000000
  1 35 257       0.00000000
  1 35 258       0.00000000
  1 35 259       0.00000000
  1 35 260       0.00000000
  1 35 261       0.00000000
  1 35 262       0.00000000
  1 35 263       0.00000000
  1 35 264       0.00000000
  1 35 265       0.00000000
  1 35 266       0.00000000
  1 35 267       0.00000000
  1 35 268       0.00000000
  1 35 269       0.00000000
  1 36 244       0.00000000
  1 36 245       0.00000000
  1 36 246       0.00000000
  1 36 247       0.00000000
  1 36 248       0.00000000
  1 36 249       0.00000000
  1 36 250       0.00000000
  1 36 251       0.00000000
  1 36 252       0.00000000
  1 36 253       0.00000000
  1 36 254       0.00000000
  1 36 255       0.00000000
  1 36 256       0.00000000
  1 36 257       0.00000000
  1 36 258       0.00000000
  1 36 259       0.00000000
  1 36 260       0.00000000
  1 36 261       0.00000000
  1 36 262       0.00000000
  1 36 263       0.00000000
  1 36 264       0.00000000
  1 36 265       0.00000000
  1 36 266       0.00000000
  1 36 267       0.00000000
  1 36 268       0.00000000
  1 37 243       0.00000000
  1 37 244       0.00000000
  1 37 245       0.00000000
  1 37 246       0.00000000
  1 37 247       0.00000000
  1 37 248       0.00000000
  1 37 249       0.00000000
  1 37 250       0.00000000
  1 37 251       0.00000000
  1 37 252       0.00000000
  1 37 253       0.00000000
  1 37 254       0.00000000
  1 37 255       0.00000000
  1 37 256       0.00000000
  1 37 257       0.00000000
  1 37 258       0.00000000
  1 37 259       0.00000000
  1 37 260       0.00000000
  1 37 261       0.00000000
  1 37 262       0.00000000
  1 37 263       0.00000000
  1 37 264       0.00000000
  1 37 265       0.00000000
  1 37 266       0.00000000
  1 37 267       0.00000000
  1 38 243       0.00000000
  1 38 244       0.00000000
  1 38 245       0.00000000
  1 38 246       0.00000000
  1 38 247       0.00000000
  1 38 248       0.00000000
  1 38 249       0.00000000
  1 38 250       0.00000000
  1 38 251       0.00000000
  1 38 252       0.00000000
  1 38 253       0.00000000
  1 38 254       0.00000000
  1 38 255       0.00000000
  1 38 256       0.00000000
  1 38 257       0.00000000
  1 38 258       0.00000000
  1 38 259       0.00000000
  1 38 260       0.00000000
  1 38 261       0.00000000
  1 38 262       0.00000000
  1 38 263       0.00000000
  1 38 264       0.00000000
  1 38 265       0.00000000
  1 38 266       0.00000000
  1 38 267       0.00000000
  1 39 244       0.00000000
  1 39 245       0.00000000
  1 39 246       0.00000000
  1 39 247       0.00000000
  1 39 248       0.00000000
  1 39 249       0.00000000
  1 39 250       0.00000000
  1 39 251       0.00000000
  1 39 252       0.00000000
  1 39 253       0.00000000
  1 39 254       0.00000000
  1 39 255       0.00000000
  1 39 256       0.00000000
  1 39 257       0.00000000
  1 39 258       0.00000000
  1 39 259       0.00000000
  1 39 260       0.00000000
  1 39 261       0.00000000
  1 39 262       0.00000000
  1 39 263       0.00000000
  1 39 264       0.00000000
  1 39 265       0.00000000
  1 39 266       0.00000000
  1 40 244       0.00000000
  1 40 245       0.00000000
  1 40 246       0.00000000
  1 40 247       0.00000000
  1 40 248       0.00000000
  1 40 249       0.00000000
  1 40 250       0.00000000
  1 40 251       0.00000000
  1 40 252       0.00000000
  1 40 253       0.00000000
  1 40 254       0.00000000
  1 40 255       0.00000000
  1 40 256       0.00000000
  1 40 257       0.00000000
  1 40 258       0.00000000
  1 40 259       0.00000000
  1 40 260       0.00000000
  1 40 261       0.00000000
  1 40 262       0.00000000
  1 40 263       0.00000000
  1 40 264       0.00000000
  1 40 265       0.00000000
  1 40 266       0.00000000
  1 41 245       0.00000000
  1 41 246       0.00000000
  1 41 247       0.00000000
  1 41 248       0.00000000
  1 41 249       0.00000000
  1 41 250       0.00000000
  1 41 251       0.00000000
  1 41 252       0.00000000
  1 41 253       0.00000000
  1 41 254       0.00000000
  1 41 255       0.00000000
  1 41 256       0.00000000
  1 41 257       0.00000000
  1 41 258       0.00000000
  1 41 259       0.00000000
  1 41 260       0.00000000
  1 41 261       0.00000000
  1 41 262       0.00000000
  1 41 263       0.00000000
  1 41 264       0.00000000
  1 41 265       0.00000000
  1 42 246       0.00000000
  1 42 247       0.00000000
  1 42 248       0.00000000
  1 42 249       0.00000000
  1 42 250       0.00000000
  1 42 251       0.00000000
  1 42 252       0.00000000
  1 42 253       0.00000000
  1 42 254       0.00000000
  1 42 255       0.00000000
  1 42 256       0.00000000
  1 42 257       0.00000000
  1 42 258       0.00000000
  1 42 259       0.00000000
  1 42 260       0.00000000
  1 42 261       0.00000000
  1 42 262       0.00000000
  1 42 263       0.00000000
  1 42 264       0.00000000
  1 43 243       0.00000000
  1 43 246       0.00000000
  1 43 247       0.00000000
  1 43 248       0.00000000
  1 43 249       0.00000000
  1 43 250       0.00000000
  1 43 251       0.00000000
  1 43 252       0.00000000
  1 43 253       0.00000000
  1 43 254       0.00000000
  1 43 255       0.00000000
  1 43 256       0.00000000
  1 43 257       0.00000000
  1 43 258       0.00000000
  1 43 259       0.00000000
  1 43 260       0.00000000
  1 43 261       0.00000000
  1 43 262       0.00000000
  1 43 263       0.00000000
  1 44 243       0.00000000
  1 44 244       0.00000000
  1 44 245       0.00000000
  1 44 246       0.00000000
  1 44 247       0.00000000
  1 44 248       0.00000000
  1 44 249       0.00000000
  1 44 250       0.00000000
  1 44 251       0.00000000
  1 44 252       0.00000000
  1 44 253       0.00000000
  1 44 254       0.00000000
  1 44 255       0.00000000
  1 44 256       0.00000000
  1 44 257       0.00000000
  1 44 258       0.00000000
  1 44 259       0.00000000
  1 44 260       0.00000000
  1 44 261       0.00000000
  1 44 262       0.00000000
  1 44 263       0.00000000
  1 45 242       0.00000000
  1 45 243       0.00000000
  1 45 244       0.00000000
  1 45 245       0.00000000
  1 45 246       0.00000000
  1 45 247       0.00000000
  1 45 248       0.00000000
  1 45 249       0.00000000
  1 45 250       0.00000000
  1 45 251       0.00000000
  1 45 252       0.00000000
  1 45 253       0.00000000
  1 45 254       0.00000000
  1 45 255       0.00000000
  1 45 256       0.00000000
  1 45 257       0.00000000
  1 45 258       0.00000000
  1 45 259       0.00000000
  1 45 260       0.00000000
  1 45 261       0.00000000
  1 45 262       0.00000000
  1 46 242       0.00000000
  1 46 243       0.00000000
  1 46 244       0.00000000
  1 46 245       0.00000000
  1 46 246       0.00000000
  1 46 247       0.00000000
  1 46 248       0.00000000
  1 46 249       0.00000000
  1 46 250       0.00000000
  1 46 251       0.00000000
  1 46 252       0.00000000
  1 46 253       0.00000000
  1 46 254       0.00000000
  1 46 255       0.00000000
  1 46 256       0.00000000
  1 46 257       0.00000000
  1 46 258       0.00000000
  1 46 259       0.00000000
  1 46 260       0.00000000
  1 46 261       0.00000000
  1 47 241       0.00000000
  1 47 242       0.00000000
  1 47 243       0.00000000
  1 47 244       0.00000000
  1 47 245       0.00000000
  1 47 246       0.00000000
  1 47 247       0.00000000
  1 47 248       0.00000000
  1 47 249       0.00000000
  1 47 250       0.00000000
  1 47 251       0.00000000
  1 47 252       0.00000000
  1 47 253       0.00000000
  1 47 254       0.00000000
  1 47 255       0.00000000
  1 47 256       0.00000000
  1 47 257       0.00000000
  1 47 258       0.00000000
  1 47 259       0.00000000
  1 47 260       0.00000000
  1 47 261       0.00000000
  1 48 241       0.00000000
  1 48 242       0.00000000
  1 48 243       0.00000000
  1 48 244       0.00000000
  1 48 245       0.00000000
  1 48 246       0.00000000
  1 48 247       0.00000000
  1 48 248       0.00000000
  1 48 249       0.00000000
  1 48 250       0.00000000
  1 48 251       0.00000000
  1 48 252       0.00000000
  1 48 253       0.00000000
  1 48 254       0.00000000
  1 48 255       0.00000000
  1 48 256       0.00000000
  1 48 257       0.00000000
  1 48 258       0.00000000
  1 48 259       0.00000000
  1 48 260       0.00000000
  1 49 239       0.00000000
  1 49 240       0.00000000
  1 49 241       0.00000000
  1 49 242       0.00000000
  1 49 243       0.00000000
  1 49 244       0.00000000
  1 49 245       0.00000000
  1 49 246       0.00000000
  1 49 247       0.00000000
  1 49 248       0.00000000
  1 49 249       0.00000000
  1 49 250       0.00000000
  1 49 251       0.00000000
  1 49 252       0.00000000
  1 49 253       0.00000000
  1 49 254       0.00000000
  1 49 255       0.00000000
  1 49 256       0.00000000
  1 49 257       0.00000000
  1 49 258       0.00000000
  1 49 259       0.00000000
  1 49 260       0.00000000
  1 50 235       0.00000000
  1 50 236       0.00000000
  1 50 237       0.00000000
  1 50 238       0.00000000
  1 50 239       0.00000000
  1 50 240       0.00000000
  1 50 241       0.00000000
  1 50 242       0.00000000
  1 50 243       0.00000000
  1 50 244       0.00000000
  1 50 245       0.00000000
  1 50 246       0.00000000
  1 50 247       0.00000000
  1 50 248       0.00000000
  1 50 249       0.00000000
  1 50 250       0.00000000
  1 50 251       0.00000000
  1 50 252       0.00000000
  1 50 253       0.00000000
  1 50 254       0.00000000
  1 50 255       0.00000000
  1 50 256       0.00000000
  1 50 257       0.00000000
  1 50 258       0.00000000
  1 50 259       0.00000000
  1 51 233       0.00000000
  1 51 234       0.00000000
  1 51 235       0.00000000
  1 51 236       0.00000000
  1 51 237       0.00000000
  1 51 238       0.00000000
  1 51 239       0.00000000
  1 51 240       0.00000000
  1 51 241       0.00000000
  1 51 242       0.00000000
  1 51 243       0.00000000
  1 51 244       0.00000000
  1 51 245       0.00000000
  1 51 246       0.00000000
  1 51 247       0.00000000
  1 51 248       0.00000000
  1 51 249       0.00000000
  1 51 250       0.00000000
  1 51 251       0.00000000
  1 51 252       0.00000000
  1 51 253       0.00000000
  1 51 254       0.00000000
  1 51 255       0.00000000
  1 51 256       0.00000000
  1 51 257       0.00000000
  1 51 258       0.00000000
  1 51 259       0.00000000
  1 52 232       0.00000000
  1 52 233       0.00000000
  1 52 234       0.00000000
  1 52 235       0.00000000
  1 52 236       0.00000000
  1 52 237       0.00000000
  1 52 238       0.00000000
  1 52 239       0.00000000
  1 52 240       0.00000000
  1 52 241       0.00000000
  1 52 242       0.00000000
  1 52 243       0.00000000
  1 52 244       0.00000000
  1 52 245       0.00000000
  1 52 246       0.00000000
  1 52 247       0.00000000
  1 52 248       0.00000000
  1 52 249       0.00000000
  1 52 250       0.00000000
  1 52 251       0.00000000
  1 52 252       0.00000000
  1 52 253       0.00000000
  1 52 254       0.00000000
  1 52 255       0.00000000
  1 52 256       0.00000000
  1 52 258       0.00000000
  1 52 259       0.00000000
  1 53 231       0.00000000
  1 53 232       0.00000000
  1 53 233       0.00000000
  1 53 234       0.00000000
  1 53 235       0.00000000
  1 53 236       0.00000000
  1 53 237       0.00000000
  1 53 238       0.00000000
  1 53 239       0.00000000
  1 53 240       0.00000000
  1 53 241       0.00000000
  1 53 242       0.00000000
  1 53 243       0.00000000
  1 53 244       0.00000000
  1 53 245       0.00000000
  1 53 246       0.00000000
  1 53 247       0.00000000
  1 53 248       0.00000000
  1 53 249       0.00000000
  1 53 250       0.00000000
  1 53 251       0.00000000
  1 53 252       0.00000000
  1 53 253       0.00000000
  1 53 254       0.00000000
  1 53 255       0.00000000
  1 53 256       0.00000000
  1 53 258       0.00000000
  1 53 259       0.00000000
  1 54 231       0.00000000
  1 54 232       0.00000000
  1 54 233       0.00000000
  1 54 234       0.00000000
  1 54 235       0.00000000
  1 54 236       0.00000000
  1 54 237       0.00000000
  1 54 238       0.00000000
  1 54 239       0.00000000
  1 54 240       0.00000000
  1 54 241       0.00000000
  1 54 242       0.00000000
  1 54 243       0.00000000
  1 54 244       0.00000000
  1 54 245       0.00000000
  1 54 246       0.00000000
  1 54 247       0.00000000
  1 54 248       0.00000000
  1 54 249       0.00000000
  1 54 250       0.00000000
  1 54 251       0.00000000
  1 54 252       0.00000000
  1 54 253       0.00000000
  1 54 254       0.00000000
  1 54 255       0.00000000
  1 54 256       0.00000000
  1 54 258       0.00000000
  1 54 259       0.00000000
  1 54 260       0.00000000
  1 55 228       0.00000000
  1 55 229       0.00000000
  1 55 230       0.00000000
  1 55 231       0.00000000
  1 55 232       0.00000000
  1 55 233       0.00000000
  1 55 234       0.00000000
  1 55 235       0.00000000
  1 55 236       0.00000000
  1 55 237       0.00000000
  1 55 238       0.00000000
  1 55 239       0.00000000
  1 55 240       0.00000000
  1 55 241       0.00000000
  1 55 242       0.00000000
  1 55 243       0.00000000
  1 55 244       0.00000000
  1 55 245       0.00000000
  1 55 246       0.00000000
  1 55 247       0.00000000
  1 55 248       0.00000000
  1 55 249       0.00000000
  1 55 250       0.00000000
  1 55 251       0.00000000
  1 55 252       0.00000000
  1 55 253       0.00000000
  1 55 254       0.00000000
  1 55 255       0.00000000
  1 55 256       0.00000000
  1 55 258       0.00000000
  1 55 259       0.00000000
  1 55 260       0.00000000
  1 55 261       0.00000000
  1 56 227       0.00000000
  1 56 228       0.00000000
  1 56 229       0.00000000
  1 56 230       0.00000000
  1 56 231       0.00000000
  1 56 232       0.00000000
  1 56 233       0.00000000
  1 56 234       0.00000000
  1 56 235       0.00000000
  1 56 236       0.00000000
  1 56 237       0.00000000
  1 56 238       0.00000000
  1 56 239       0.00000000
  1 56 240       0.00000000
  1 56 241       0.00000000
  1 56 242       0.00000000
  1 56 243       0.00000000
  1 56 244       0.00000000
  1 56 245       0.00000000
  1 56 246       0.00000000
  1 56 247       0.00000000
  1 56 248       0.00000000
  1 56 249       0.00000000
  1 56 250       0.00000000
  1 56 251       0.00000000
  1 56 252       0.00000000
  1 56 253       0.00000000
  1 56 254       0.00000000
  1 56 255       0.00000000
  1 56 257       0.00000000
  1 56 258       0.00000000
  1 56 259       0.00000000
  1 56 260       0.00000000
  1 56 261       0.00000000
  1 57 226       0.00000000
  1 57 227       0.00000000
  1 57 228       0.00000000
  1 57 229       0.00000000
  1 57 230       0.00000000
  1 57 231       0.00000000
  1 57 232       0.00000000
  1 57 233       0.00000000
  1 57 234       0.00000000
  1 57 235       0.00000000
  1 57 236       0.00000000
  1 57 237       0.00000000
  1 57 238       0.00000000
  1 57 239       0.00000000
  1 57 240       0.00000000
  1 57 241       0.00000000
  1 57 242       0.00000000
  1 57 243       0.00000000
  1 57 244       0.00000000
  1 57 245       0.00000000
  1 57 246       0.00000000
  1 57 247       0.00000000
  1 57 248       0.00000000
  1 57 249       0.00000000
  1 57 250       0.00000000
  1 57 251       0.00000000
  1 57 252       0.00000000
  1 57 253       0.00000000
  1 57 254       0.00000000
  1 57 255       0.00000000
  1 57 257       0.00000000
  1 57 258       0.00000000
  1 57 259       0.00000000
  1 57 260       0.00000000
  1 58 225       0.00000000
  1 58 226       0.00000000
  1 58 227       0.00000000
  1 58 228       0.00000000
  1 58 229       0.00000000
  1 58 230       0.00000000
  1 58 231       0.00000000
  1 58 232       0.00000000
  1 58 233       0.00000000
  1 58 234       0.00000000
  1 58 235       0.00000000
  1 58 236       0.00000000
  1 58 237       0.00000000
  1 58 238       0.00000000
  1 58 239       0.00000000
  1 58 240       0.00000000
  1 58 241       0.00000000
  1 58 242       0.00000000
  1 58 243       0.00000000
  1 58 244       0.00000000
  1 58 245       0.00000000
  1 58 246       0.00000000
  1 58 247       0.00000000
  1 58 248       0.00000000
  1 58 249       0.00000000
  1 58 250       0.00000000
  1 58 251       0.00000000
  1 58 252       0.00000000
  1 58 253       0.00000000
  1 58 254       0.00000000
  1 58 256       0.00000000
  1 58 257       0.00000000
  1 58 258       0.00000000
  1 58 259       0.00000000
  1 58 260       0.00000000
  1 58 261       0.00000000
  1 58 262       0.00000000
  1 59 224       0.00000000
  1 59 225       0.00000000
  1 59 226       0.00000000
  1 59 227       0.00000000
  1 59 228       0.00000000
  1 59 229       0.00000000
  1 59 230       0.00000000
  1 59 231       0.00000000
  1 59 232       0.00000000
  1 59 233       0.00000000
  1 59 234       0.00000000
  1 59 235       0.00000000
  1 59 236       0.00000000
  1 59 237       0.00000000
  1 59 238       0.00000000
  1 59 239       0.00000000
  1 59 240       0.00000000
  1 59 241       0.00000000
  1 59 242       0.00000000
  1 59 243       0.00000000
  1 59 244       0.00000000
  1 59 245       0.00000000
  1 59 246       0.00000000
  1 59 247       0.00000000
  1 59 248       0.00000000
  1 59 249       0.00000000
  1 59 250       0.00000000
  1 59 251       0.00000000
  1 59 252       0.00000000
  1 59 253       0.00000000
  1 59 254       0.00000000
  1 59 256       0.00000000
  1 59 257       0.00000000
  1 59 258       0.00000000
  1 59 259       0.00000000
  1 59 262       0.00000000
  1 59 263       0.00000000
  1 60 224       0.00000000
  1 60 225       0.00000000
  1 60 226       0.00000000
  1 60 227       0.00000000
  1 60 228       0.00000000
  1 60 229       0.00000000
  1 60 230       0.00000000
  1 60 231       0.00000000
  1 60 232       0.00000000
  1 60 233       0.00000000
  1 60 234       0.00000000
  1 60 235       0.00000000
  1 60 236       0.00000000
  1 60 237       0.00000000
  1 60 238       0.00000000
  1 60 239       0.00000000
  1 60 240       0.00000000
  1 60 241       0.00000000
  1 60 242       0.00000000
  1 60 243       0.00000000
  1 60 244       0.00000000
  1 60 245       0.00000000
  1 60 246       0.00000000
  1 60 247       0.00000000
  1 60 248       0.00000000
  1 60 249       0.00000000
  1 60 250       0.00000000
  1 60 251       0.00000000
  1 60 252       0.00000000
  1 60 253       0.00000000
  1 60 254       0.00000000
  1 60 255       0.00000000
  1 60 256       0.00000000
  1 60 257       0.00000000
  1 60 258       0.00000000
  1 60 259       0.00000000
  1 60 262       0.00000000
  1 60 263       0.00000000
  1 61 223       0.00000000
  1 61 224       0.00000000
  1 61 225       0.00000000
  1 61 226       0.00000000
  1 61 227       0.00000000
  1 61 228       0.00000000
  1 61 229       0.00000000
  1 61 230       0.00000000
  1 61 231       0.00000000
  1 61 232       0.00000000
  1 61 233       0.00000000
  1 61 234       0.00000000
  1 61 235       0.00000000
  1 61 236       0.00000000
  1 61 237       0.00000000
  1 61 238       0.00000000
  1 61 239       0.00000000
  1 61 240       0.00000000
  1 61 241       0.00000000
  1 61 242       0.00000000
  1 61 243       0.00000000
  1 61 244       0.00000000
  1 61 245       0.00000000
  1 61 246       0.00000000
  1 61 247       0.00000000
  1 61 248       0.00000000
  1 61 249       0.00000000
  1 61 250       0.00000000
  1 61 251       0.00000000
  1 61 252       0.00000000
  1 61 253       0.00000000
  1 61 254       0.00000000
  1 61 255       0.00000000
  1 61 256       0.00000000
  1 61 257       0.00000000
  1 61 258       0.00000000
  1 61 259       0.00000000
  1 61 261       0.00000000
  1 61 262       0.00000000
  1 61 263       0.00000000
  1 62 223       0.00000000
  1 62 224       0.00000000
  1 62 225       0.00000000
  1 62 226       0.00000000
  1 62 227       0.00000000
  1 62 228       0.00000000
  1 62 229       0.00000000
  1 62 230       0.00000000
  1 62 231       0.00000000
  1 62 232       0.00000000
  1 62 233       0.00000000
  1 62 234       0.00000000
  1 62 235       0.00000000
  1 62 236       0.00000000
  1 62 237       0.00000000
  1 62 238       0.00000000
  1 62 239       0.00000000
  1 62 240       0.00000000
  1 62 241       0.00000000
  1 62 242       0.00000000
  1 62 243       0.00000000
  1 62 244       0.00000000
  1 62 245       0.00000000
  1 62 246       0.00000000
  1 62 247       0.00000000
  1 62 248       0.00000000
  1 62 249       0.00000000
  1 62 250       0.00000000
  1 62 251       0.00000000
  1 62 252       0.00000000
  1 62 253       0.00000000
  1 62 254       0.00000000
  1 62 255       0.00000000
  1 62 256       0.00000000
  1 62 257       0.00000000
  1 62 258       0.00000000
  1 62 261       0.00000000
  1 62 262       0.00000000
  1 62 263       0.00000000
  1 63 223       0.00000000
  1 63 224       0.00000000
  1 63 225       0.00000000
  1 63 226       0.00000000
  1 63 227       0.00000000
  1 63 228       0.00000000
  1 63 229       0.00000000
  1 63 230       0.00000000
  1 63 231       0.00000000
  1 63 232       0.00000000
  1 63 233       0.00000000
  1 63 234       0.00000000
  1 63 235       0.00000000
  1 63 236       0.00000000
  1 63 237       0.00000000
  1 63 238       0.00000000
  1 63 239       0.00000000
  1 63 240       0.00000000
  1 63 241       0.00000000
  1 63 242       0.00000000
  1 63 243       0.00000000
  1 63 244       0.00000000
  1 63 245       0.00000000
  1 63 246       0.00000000
  1 63 247       0.00000000
  1 63 248       0.00000000
  1 63 249       0.00000000
  1 63 250       0.00000000
  1 63 251       0.00000000
  1 63 252       0.00000000
  1 63 253       0.00000000
  1 63 254       0.00000000
  1 63 255       0.00000000
  1 63 256       0.00000000
  1 63 257       0.00000000
  1 63 263       0.00000000
  1 64 222       0.00000000
  1 64 223       0.00000000
  1 64 224       0.00000000
  1 64 225       0.00000000
  1 64 226       0.00000000
  1 64 227       0.00000000
  1 64 228       0.00000000
  1 64 229       0.00000000
  1 64 230       0.00000000
  1 64 231       0.00000000
  1 64 232       0.00000000
  1 64 233       0.00000000
  1 64 234       0.00000000
  1 64 235       0.00000000
  1 64 236       0.00000000
  1 64 237       0.00000000
  1 64 238       0.00000000
  1 64 239       0.00000000
  1 64 240       0.00000000
  1 64 241       0.00000000
  1 64 242       0.00000000
  1 64 243       0.00000000
  1 64 244       0.00000000
  1 64 245       0.00000000
  1 64 246       0.00000000
  1 64 247       0.00000000
  1 64 248       0.00000000
  1 64 249       0.00000000
  1 64 250       0.00000000
  1 64 251       0.00000000
  1 64 252       0.00000000
  1 64 253       0.00000000
  1 64 254       0.00000000
  1 64 255       0.00000000
  1 64 256       0.00000000
  1 64 263       0.00000000
  1 65 222       0.00000000
  1 65 223       0.00000000
  1 65 224       0.00000000
  1 65 225       0.00000000
  1 65 226       0.00000000
  1 65 227       0.00000000
  1 65 228       0.00000000
  1 65 229       0.00000000
  1 65 230       0.00000000
  1 65 231       0.00000000
  1 65 232       0.00000000
  1 65 233       0.00000000
  1 65 234       0.00000000
  1 65 235       0.00000000
  1 65 236       0.00000000
  1 65 237       0.00000000
  1 65 238       0.00000000
  1 65 239       0.00000000
  1 65 240       0.00000000
  1 65 241       0.00000000
  1 65 242       0.00000000
  1 65 243       0.00000000
  1 65 244       0.00000000
  1 65 245       0.00000000
  1 65 246       0.00000000
  1 65 247       0.00000000
  1 65 248       0.00000000
  1 65 249       0.00000000
  1 65 250       0.00000000
  1 65 251       0.00000000
  1 65 252       0.00000000
  1 65 253       0.00000000
  1 65 254       0.00000000
  1 66 221       0.00000000
  1 66 222       0.00000000
  1 66 223       0.00000000
  1 66 224       0.00000000
  1 66 225       0.00000000
  1 66 226       0.00000000
  1 66 227       0.00000000
  1 66 228       0.00000000
  1 66 229       0.00000000
  1 66 230       0.00000000
  1 66 231       0.00000000
  1 66 232       0.00000000
  1 66 233       0.00000000
  1 66 234       0.00000000
  1 66 235       0.00000000
  1 66 236       0.00000000
  1 66 237       0.00000000
  1 66 238       0.00000000
  1 66 239       0.00000000
  1 66 240       0.00000000
  1 66 241       0.00000000
  1 66 242       0.00000000
  1 66 243       0.00000000
  1 66 244       0.00000000
  1 66 245       0.00000000
  1 66 246       0.00000000
  1 66 247       0.00000000
  1 66 248       0.00000000
  1 66 249       0.00000000
  1 66 250       0.00000000
  1 66 251       0.00000000
  1 66 252       0.00000000
  1 66 253       0.00000000
  1 66 254       0.00000000
  1 66 255       0.00000000
  1 66 256       0.00000000
  1 66 257       0.00000000
  1 66 258       0.00000000
  1 66 259       0.00000000
  1 66 260       0.00000000
  1 66 261       0.00000000
  1 66 262       0.00000000
  1 67 220       0.00000000
  1 67 221       0.00000000
  1 67 222       0.00000000
  1 67 223       0.00000000
  1 67 227       0.00000000
  1 67 228       0.00000000
  1 67 229       0.00000000
  1 67 230       0.00000000
  1 67 231       0.00000000