BEGIN options
  SAVE_FLOWS
END options

BEGIN dimensions
  MAXBOUND  520
END dimensions

BEGIN period  1
  1 13 142       0.00000000
  1 13 143       0.00000000
  1 14 142       0.00000000
  1 14 143       0.00000000
  1 15 132       0.00000000
  1 15 133       0.00000000
  1 15 134       0.00000000
  1 15 135       0.00000000
  1 15 137       0.00000000
  1 15 138       0.00000000
  1 15 140       0.00000000
  1 15 141       0.00000000
  1 15 142       0.00000000
  1 15 143       0.00000000
  1 16 131       0.00000000
  1 16 132       0.00000000
  1 16 133       0.00000000
  1 16 134       0.00000000
  1 16 135       0.00000000
  1 16 136       0.00000000
  1 16 137       0.00000000
  1 16 138       0.00000000
  1 16 139       0.00000000
  1 16 140       0.00000000
  1 16 141       0.00000000
  1 16 142       0.00000000
  1 16 143       0.00000000
  1 17 131       0.00000000
  1 17 132       0.00000000
  1 17 133       0.00000000
  1 17 134       0.00000000
  1 17 135       0.00000000
  1 17 136       0.00000000
  1 17 137       0.00000000
  1 17 138       0.00000000
  1 17 139       0.00000000
  1 17 140       0.00000000
  1 17 141       0.00000000
  1 17 142       0.00000000
  1 17 143       0.00000000
  1 18 130       0.00000000
  1 18 131       0.00000000
  1 18 132       0.00000000
  1 18 133       0.00000000
  1 18 134       0.00000000
  1 18 135       0.00000000
  1 18 136       0.00000000
  1 18 137       0.00000000
  1 18 138       0.00000000
  1 18 139       0.00000000
  1 18 140       0.00000000
  1 18 141       0.00000000
  1 18 142       0.00000000
  1 18 143       0.00000000
  1 19 130       0.00000000
  1 19 131       0.00000000
  1 19 132       0.00000000
  1 19 133       0.00000000
  1 19 134       0.00000000
  1 19 135       0.00000000
  1 19 136       0.00000000
  1 19 137       0.00000000
  1 19 138       0.00000000
  1 19 139       0.00000000
  1 19 140       0.00000000
  1 19 141       0.00000000
  1 19 142       0.00000000
  1 20 130       0.00000000
  1 20 131       0.00000000
  1 20 132       0.00000000
  1 20 133       0.00000000
  1 20 134       0.00000000
  1 20 135       0.00000000
  1 20 136       0.00000000
  1 20 137       0.00000000
  1 20 138       0.00000000
  1 20 139       0.00000000
  1 20 140       0.00000000
  1 20 141       0.00000000
  1 20 142       0.00000000
  1 21 131       0.00000000
  1 21 132       0.00000000
  1 21 133       0.00000000
  1 21 134       0.00000000
  1 21 135       0.00000000
  1 21 136       0.00000000
  1 21 137       0.00000000
  1 21 138       0.00000000
  1 21 139       0.00000000
  1 21 140       0.00000000
  1 21 141       0.00000000
  1 22 130       0.00000000
  1 22 131       0.00000000
  1 22 132       0.00000000
  1 22 133       0.00000000
  1 22 134       0.00000000
  1 22 135       0.00000000
  1 22 136       0.00000000
  1 22 137       0.00000000
  1 22 138       0.00000000
  1 22 139       0.00000000
  1 22 140       0.00000000
  1 23 129       0.00000000
  1 23 130       0.00000000
  1 23 131       0.00000000
  1 23 132       0.00000000
  1 23 133       0.00000000
  1 23 134       0.00000000
  1 23 135       0.00000000
  1 23 136       0.00000000
  1 23 137       0.00000000
  1 23 138       0.00000000
  1 23 139       0.00000000
  1 24 129       0.00000000
  1 24 130       0.00000000
  1 24 131       0.00000000
  1 24 132       0.00000000
  1 24 133       0.00000000
  1 24 134       0.00000000
  1 24 135       0.00000000
  1 24 136       0.00000000
  1 24 137       0.00000000
  1 24 138       0.00000000
  1 24 139       0.00000000
  1 25 127       0.00000000
  1 25 128       0.00000000
  1 25 129       0.00000000
  1 25 130       0.00000000
  1 25 131       0.00000000
  1 25 132       0.00000000
  1 25 133       0.00000000
  1 25 134       0.00000000
  1 25 135       0.00000000
  1 25 136       0.00000000
  1 25 137       0.00000000
  1 25 138       0.00000000
  1 26 124       0.00000000
  1 26 125       0.00000000
  1 26 126       0.00000000
  1 26 127       0.00000000
  1 26 128       0.00000000
  1 26 129       0.00000000
  1 26 130       0.00000000
  1 26 131       0.00000000
  1 26 132       0.00000000
  1 26 133       0.00000000
  1 26 134       0.00000000
  1 26 135       0.00000000
  1 26 136       0.00000000
  1 26 137       0.00000000
  1 26 138       0.00000000
  1 27 123       0.00000000
  1 27 124       0.00000000
  1 27 125       0.00000000
  1 27 126       0.00000000
  1 27 127       0.00000000
  1 27 128       0.00000000
  1 27 129       0.00000000
  1 27 130       0.00000000
  1 27 131       0.00000000
  1 27 132       0.00000000
  1 27 133       0.00000000
  1 27 134       0.00000000
  1 27 135       0.00000000
  1 27 136       0.00000000
  1 27 137       0.00000000
  1 27 138       0.00000000
  1 28 122       0.00000000
  1 28 123       0.00000000
  1 28 124       0.00000000
  1 28 125       0.00000000
  1 28 126       0.00000000
  1 28 127       0.00000000
  1 28 128       0.00000000
  1 28 129       0.00000000
  1 28 130       0.00000000
  1 28 131       0.00000000
  1 28 132       0.00000000
  1 28 133       0.00000000
  1 28 134       0.00000000
  1 28 135       0.00000000
  1 28 136       0.00000000
  1 28 137       0.00000000
  1 28 138       0.00000000
  1 28 139       0.00000000
  1 29 120       0.00000000
  1 29 121       0.00000000
  1 29 122       0.00000000
  1 29 123       0.00000000
  1 29 124       0.00000000
  1 29 125       0.00000000
  1 29 126       0.00000000
  1 29 127       0.00000000
  1 29 128       0.00000000
  1 29 129       0.00000000
  1 29 130       0.00000000
  1 29 131       0.00000000
  1 29 132       0.00000000
  1 29 133       0.00000000
  1 29 134       0.00000000
  1 29 135       0.00000000
  1 29 136       0.00000000
  1 29 137       0.00000000
  1 29 138       0.00000000
  1 29 139       0.00000000
  1 29 140       0.00000000
  1 30 120       0.00000000
  1 30 121       0.00000000
  1 30 122       0.00000000
  1 30 123       0.00000000
  1 30 124       0.00000000
  1 30 125       0.00000000
  1 30 126       0.00000000
  1 30 127       0.00000000
  1 30 128       0.00000000
  1 30 129       0.00000000
  1 30 130       0.00000000
  1 30 131       0.00000000
  1 30 132       0.00000000
  1 30 133       0.00000000
  1 30 134       0.00000000
  1 30 135       0.00000000
  1 30 136       0.00000000
  1 30 137       0.00000000
  1 30 138       0.00000000
  1 30 140       0.00000000
  1 31 119       0.00000000
  1 31 120       0.00000000
  1 31 121       0.00000000
  1 31 122       0.00000000
  1 31 123       0.00000000
  1 31 124       0.00000000
  1 31 125       0.00000000
  1 31 126       0.00000000
  1 31 127       0.00000000
  1 31 128       0.00000000
  1 31 129       0.00000000
  1 31 130       0.00000000
  1 31 131       0.00000000
  1 31 132       0.00000000
  1 31 133       0.00000000
  1 31 134       0.00000000
  1 31 135       0.00000000
  1 31 136       0.00000000
  1 31 137       0.00000000
  1 31 138       0.00000000
  1 31 140       0.00000000
  1 32 119       0.00000000
  1 32 120       0.00000000
  1 32 121       0.00000000
  1 32 122       0.00000000
  1 32 123       0.00000000
  1 32 124       0.00000000
  1 32 125       0.00000000
  1 32 126       0.00000000
  1 32 127       0.00000000
  1 32 128       0.00000000
  1 32 129       0.00000000
  1 32 130       0.00000000
  1 32 131       0.00000000
  1 32 132       0.00000000
  1 32 133       0.00000000
  1 32 134       0.00000000
  1 32 135       0.00000000
  1 32 136       0.00000000
  1 32 137       0.00000000
  1 33 118       0.00000000
  1 33 119       0.00000000
  1 33 120       0.00000000
  1 33 121       0.00000000
  1 33 122       0.00000000
  1 33 123       0.00000000
  1 33 124       0.00000000
  1 33 125       0.00000000
  1 33 126       0.00000000
  1 33 127       0.00000000
  1 33 128       0.00000000
  1 33 129       0.00000000
  1 33 130       0.00000000
  1 33 131       0.00000000
  1 33 132       0.00000000
  1 33 133       0.00000000
  1 33 134       0.00000000
  1 33 135       0.00000000
  1 33 136       0.00000000
  1 33 137       0.00000000
  1 33 138       0.00000000
  1 34 118       0.00000000
  1 34 119       0.00000000
  1 34 121       0.00000000
  1 34 122       0.00000000
  1 34 123       0.00000000
  1 34 124       0.00000000
  1 34 125       0.00000000
  1 34 126       0.00000000
  1 34 127       0.00000000
  1 34 128       0.00000000
  1 34 129       0.00000000
  1 34 130       0.00000000
  1 34 131       0.00000000
  1 34 132       0.00000000
  1 34 133       0.00000000
  1 34 134       0.00000000
  1 34 135       0.00000000
  1 34 136       0.00000000
  1 34 137       0.00000000
  1 34 138       0.00000000
  1 34 139       0.00000000
  1 34 140       0.00000000
  1 35 121       0.00000000
  1 35 122       0.00000000
  1 35 123       0.00000000
  1 35 124       0.00000000
  1 35 125       0.00000000
  1 35 126       0.00000000
  1 35 127       0.00000000
  1 35 128       0.00000000
  1 35 129       0.00000000
  1 35 130       0.00000000
  1 35 131       0.00000000
  1 35 132       0.00000000
  1 35 133       0.00000000
  1 35 134       0.00000000
  1 35 136       0.00000000
  1 35 137       0.00000000
  1 35 138       0.00000000
  1 35 139       0.00000000
  1 36 122       0.00000000
  1 36 123       0.00000000
  1 36 124       0.00000000
  1 36 125       0.00000000
  1 36 126       0.00000000
  1 36 127       0.00000000
  1 36 128       0.00000000
  1 36 129       0.00000000
  1 36 130       0.00000000
  1 36 131       0.00000000
  1 36 132       0.00000000
  1 36 133       0.00000000
  1 36 134       0.00000000
  1 36 135       0.00000000
  1 36 136       0.00000000
  1 36 137       0.00000000
  1 36 138       0.00000000
  1 37 122       0.00000000
  1 37 123       0.00000000
  1 37 124       0.00000000
  1 37 125       0.00000000
  1 37 126       0.00000000
  1 37 127       0.00000000
  1 37 128       0.00000000
  1 37 129       0.00000000
  1 37 130       0.00000000
  1 37 131       0.00000000
  1 37 132       0.00000000
  1 37 133       0.00000000
  1 37 134       0.00000000
  1 37 135       0.00000000
  1 37 136       0.00000000
  1 37 137       0.00000000
  1 37 138       0.00000000
  1 38 122       0.00000000
  1 38 123       0.00000000
  1 38 124       0.00000000
  1 38 125       0.00000000
  1 38 126       0.00000000
  1 38 127       0.00000000
  1 38 128       0.00000000
  1 38 129       0.00000000
  1 38 130       0.00000000
  1 38 131       0.00000000
  1 38 132       0.00000000
  1 38 133       0.00000000
  1 38 134       0.00000000
  1 38 135       0.00000000
  1 38 136       0.00000000
  1 39 123       0.00000000
  1 39 124       0.00000000
  1 39 125       0.00000000
  1 39 126       0.00000000
  1 39 127       0.00000000
  1 39 128       0.00000000
  1 39 129       0.00000000
  1 39 130       0.00000000
  1 39 131       0.00000000
  1 39 132       0.00000000
  1 39 133       0.00000000
  1 39 134       0.00000000
  1 39 135       0.00000000
  1 39 136       0.00000000
  1 39 137       0.00000000
  1 39 138       0.00000000
  1 40 123       0.00000000
  1 40 124       0.00000000
  1 40 125       0.00000000
  1 40 126       0.00000000
  1 40 127       0.00000000
  1 40 128       0.00000000
  1 40 129       0.00000000
  1 40 130       0.00000000
  1 40 131       0.00000000
  1 40 132       0.00000000
  1 40 133       0.00000000
  1 40 134       0.00000000
  1 40 135       0.00000000
  1 40 136       0.00000000
  1 41 124       0.00000000
  1 41 125       0.00000000
  1 41 126       0.00000000
  1 41 127       0.00000000
  1 41 128       0.00000000
  1 41 129       0.00000000
  1 41 130       0.00000000
  1 41 131       0.00000000
  1 41 132       0.00000000
  1 41 133       0.00000000
  1 41 134       0.00000000
  1 41 135       0.00000000
  1 41 136       0.00000000
  1 41 137       0.00000000
  1 41 138       0.00000000
  1 42 124       0.00000000
  1 42 125       0.00000000
  1 42 126       0.00000000
  1 42 127       0.00000000
  1 42 128       0.00000000
  1 42 129       0.00000000
  1 42 130       0.00000000
  1 42 131       0.00000000
  1 42 132       0.00000000
  1 42 133       0.00000000
  1 42 134       0.00000000
  1 42 135       0.00000000
  1 42 136       0.00000000
  1 42 137       0.00000000
  1 42 138       0.00000000
  1 43 125       0.00000000
  1 43 126       0.00000000
  1 43 127       0.00000000
  1 43 128       0.00000000
  1 43 129       0.00000000
  1 43 130       0.00000000
  1 43 131       0.00000000
  1 43 132       0.00000000
  1 43 133       0.00000000
  1 43 136       0.00000000
  1 43 137       0.00000000
  1 43 138       0.00000000
  1 44 126       0.00000000
  1 44 127       0.00000000
  1 44 128       0.00000000
  1 44 129       0.00000000
  1 44 130       0.00000000
  1 44 137       0.00000000
  1 44 138       0.00000000
  1 44 140       0.00000000
  1 79 134       0.00000000
  1 79 136       0.00000000
  1 79 137       0.00000000
  1 80 132       0.00000000
  1 80 133       0.00000000
  1 80 134       0.00000000
  1 80 135       0.00000000
  1 80 136       0.00000000
  1 80 137       0.00000000
  1 80 138       0.00000000
  1 81 131       0.00000000
  1 81 132       0.00000000
  1 81 133       0.00000000
  1 81 134       0.00000000
  1 81 135       0.00000000
  1 81 136       0.00000000
  1 81 137       0.00000000
  1 81 138       0.00000000
  1 82 131       0.00000000
  1 82 132       0.00000000
  1 82 133       0.00000000
  1 82 134       0.00000000
  1 82 135       0.00000000
  1 82 136       0.00000000
  1 82 137       0.00000000
  1 82 138       0.00000000
  1 83 131       0.00000000
  1 83 132       0.00000000
  1 83 133       0.00000000
  1 83 136       0.00000000
  1 83 137       0.00000000
  1 83 138       0.00000000
  1 83 139       0.00000000
  1 84 135       0.00000000
  1 84 136       0.00000000
  1 84 137       0.00000000
  1 84 138       0.00000000
  1 84 139       0.00000000
  1 85 135       0.00000000
  1 85 136       0.00000000
  1 85 137       0.00000000
  1 85 138       0.00000000
  1 86 135       0.00000000
  1 86 136       0.00000000
  1 86 137       0.00000000
  1 86 138       0.00000000
  1 86 139       0.00000000
  1 87 135       0.00000000
  1 87 136       0.00000000
  1 87 137       0.00000000
  1 87 138       0.00000000
  1 88 135       0.00000000
  1 88 136       0.00000000
  1 88 137       0.00000000
  1 88 138       0.00000000
  1 89 136       0.00000000
  1 89 137       0.00000000
  1 89 138       0.00000000
  1 89 139       0.00000000
  1 90 136       0.00000000
  1 90 137       0.00000000
  1 90 138       0.00000000
  1 90 139       0.00000000
  1 91 137       0.00000000
END period  1

