BEGIN options
  SAVE_FLOWS
END options

BEGIN dimensions
  MAXBOUND  848
END dimensions

BEGIN period  1
  1 17 177       0.00000000
  1 17 178       0.00000000
  1 17 179       0.00000000
  1 18 177       0.00000000
  1 18 178       0.00000000
  1 18 179       0.00000000
  1 18 180       0.00000000
  1 19 177       0.00000000
  1 19 178       0.00000000
  1 19 179       0.00000000
  1 19 180       0.00000000
  1 20 165       0.00000000
  1 20 166       0.00000000
  1 20 167       0.00000000
  1 20 168       0.00000000
  1 20 169       0.00000000
  1 20 170       0.00000000
  1 20 171       0.00000000
  1 20 172       0.00000000
  1 20 173       0.00000000
  1 20 174       0.00000000
  1 20 175       0.00000000
  1 20 176       0.00000000
  1 20 177       0.00000000
  1 20 178       0.00000000
  1 20 179       0.00000000
  1 21 164       0.00000000
  1 21 165       0.00000000
  1 21 166       0.00000000
  1 21 167       0.00000000
  1 21 168       0.00000000
  1 21 169       0.00000000
  1 21 170       0.00000000
  1 21 171       0.00000000
  1 21 172       0.00000000
  1 21 173       0.00000000
  1 21 174       0.00000000
  1 21 175       0.00000000
  1 21 176       0.00000000
  1 21 177       0.00000000
  1 21 178       0.00000000
  1 21 179       0.00000000
  1 22 163       0.00000000
  1 22 164       0.00000000
  1 22 165       0.00000000
  1 22 166       0.00000000
  1 22 167       0.00000000
  1 22 168       0.00000000
  1 22 169       0.00000000
  1 22 170       0.00000000
  1 22 171       0.00000000
  1 22 172       0.00000000
  1 22 173       0.00000000
  1 22 174       0.00000000
  1 22 175       0.00000000
  1 22 176       0.00000000
  1 22 177       0.00000000
  1 22 178       0.00000000
  1 22 179       0.00000000
  1 23 163       0.00000000
  1 23 164       0.00000000
  1 23 165       0.00000000
  1 23 166       0.00000000
  1 23 167       0.00000000
  1 23 168       0.00000000
  1 23 169       0.00000000
  1 23 170       0.00000000
  1 23 171       0.00000000
  1 23 172       0.00000000
  1 23 173       0.00000000
  1 23 174       0.00000000
  1 23 175       0.00000000
  1 23 176       0.00000000
  1 23 177       0.00000000
  1 23 178       0.00000000
  1 23 179       0.00000000
  1 24 163       0.00000000
  1 24 164       0.00000000
  1 24 165       0.00000000
  1 24 166       0.00000000
  1 24 167       0.00000000
  1 24 168       0.00000000
  1 24 169       0.00000000
  1 24 170       0.00000000
  1 24 171       0.00000000
  1 24 172       0.00000000
  1 24 173       0.00000000
  1 24 174       0.00000000
  1 24 175       0.00000000
  1 24 176       0.00000000
  1 24 177       0.00000000
  1 24 178       0.00000000
  1 24 179       0.00000000
  1 25 163       0.00000000
  1 25 164       0.00000000
  1 25 165       0.00000000
  1 25 166       0.00000000
  1 25 167       0.00000000
  1 25 168       0.00000000
  1 25 169       0.00000000
  1 25 170       0.00000000
  1 25 171       0.00000000
  1 25 172       0.00000000
  1 25 173       0.00000000
  1 25 174       0.00000000
  1 25 175       0.00000000
  1 25 176       0.00000000
  1 25 177       0.00000000
  1 25 178       0.00000000
  1 26 163       0.00000000
  1 26 164       0.00000000
  1 26 165       0.00000000
  1 26 166       0.00000000
  1 26 167       0.00000000
  1 26 168       0.00000000
  1 26 169       0.00000000
  1 26 170       0.00000000
  1 26 171       0.00000000
  1 26 172       0.00000000
  1 26 173       0.00000000
  1 26 174       0.00000000
  1 26 175       0.00000000
  1 26 176       0.00000000
  1 26 177       0.00000000
  1 26 178       0.00000000
  1 27 164       0.00000000
  1 27 165       0.00000000
  1 27 166       0.00000000
  1 27 167       0.00000000
  1 27 168       0.00000000
  1 27 169       0.00000000
  1 27 170       0.00000000
  1 27 171       0.00000000
  1 27 172       0.00000000
  1 27 173       0.00000000
  1 27 174       0.00000000
  1 27 175       0.00000000
  1 27 176       0.00000000
  1 27 177       0.00000000
  1 28 164       0.00000000
  1 28 165       0.00000000
  1 28 166       0.00000000
  1 28 167       0.00000000
  1 28 168       0.00000000
  1 28 169       0.00000000
  1 28 170       0.00000000
  1 28 171       0.00000000
  1 28 172       0.00000000
  1 28 173       0.00000000
  1 28 174       0.00000000
  1 28 175       0.00000000
  1 28 176       0.00000000
  1 29 162       0.00000000
  1 29 163       0.00000000
  1 29 164       0.00000000
  1 29 165       0.00000000
  1 29 166       0.00000000
  1 29 167       0.00000000
  1 29 168       0.00000000
  1 29 169       0.00000000
  1 29 170       0.00000000
  1 29 171       0.00000000
  1 29 172       0.00000000
  1 29 173       0.00000000
  1 29 174       0.00000000
  1 29 175       0.00000000
  1 29 176       0.00000000
  1 30 162       0.00000000
  1 30 163       0.00000000
  1 30 164       0.00000000
  1 30 165       0.00000000
  1 30 166       0.00000000
  1 30 167       0.00000000
  1 30 168       0.00000000
  1 30 169       0.00000000
  1 30 170       0.00000000
  1 30 171       0.00000000
  1 30 172       0.00000000
  1 30 173       0.00000000
  1 30 174       0.00000000
  1 30 175       0.00000000
  1 31 161       0.00000000
  1 31 162       0.00000000
  1 31 163       0.00000000
  1 31 164       0.00000000
  1 31 165       0.00000000
  1 31 166       0.00000000
  1 31 167       0.00000000
  1 31 168       0.00000000
  1 31 169       0.00000000
  1 31 170       0.00000000
  1 31 171       0.00000000
  1 31 172       0.00000000
  1 31 173       0.00000000
  1 31 174       0.00000000
  1 32 161       0.00000000
  1 32 162       0.00000000
  1 32 163       0.00000000
  1 32 164       0.00000000
  1 32 165       0.00000000
  1 32 166       0.00000000
  1 32 167       0.00000000
  1 32 168       0.00000000
  1 32 169       0.00000000
  1 32 170       0.00000000
  1 32 171       0.00000000
  1 32 172       0.00000000
  1 32 173       0.00000000
  1 33 159       0.00000000
  1 33 160       0.00000000
  1 33 161       0.00000000
  1 33 162       0.00000000
  1 33 163       0.00000000
  1 33 164       0.00000000
  1 33 165       0.00000000
  1 33 166       0.00000000
  1 33 167       0.00000000
  1 33 168       0.00000000
  1 33 169       0.00000000
  1 33 170       0.00000000
  1 33 171       0.00000000
  1 33 172       0.00000000
  1 33 173       0.00000000
  1 34 156       0.00000000
  1 34 157       0.00000000
  1 34 158       0.00000000
  1 34 159       0.00000000
  1 34 160       0.00000000
  1 34 161       0.00000000
  1 34 162       0.00000000
  1 34 163       0.00000000
  1 34 164       0.00000000
  1 34 165       0.00000000
  1 34 166       0.00000000
  1 34 167       0.00000000
  1 34 168       0.00000000
  1 34 169       0.00000000
  1 34 170       0.00000000
  1 34 171       0.00000000
  1 34 172       0.00000000
  1 34 173       0.00000000
  1 35 155       0.00000000
  1 35 156       0.00000000
  1 35 157       0.00000000
  1 35 158       0.00000000
  1 35 159       0.00000000
  1 35 160       0.00000000
  1 35 161       0.00000000
  1 35 162       0.00000000
  1 35 163       0.00000000
  1 35 164       0.00000000
  1 35 165       0.00000000
  1 35 166       0.00000000
  1 35 167       0.00000000
  1 35 168       0.00000000
  1 35 169       0.00000000
  1 35 170       0.00000000
  1 35 171       0.00000000
  1 35 172       0.00000000
  1 35 173       0.00000000
  1 36 154       0.00000000
  1 36 155       0.00000000
  1 36 156       0.00000000
  1 36 157       0.00000000
  1 36 158       0.00000000
  1 36 159       0.00000000
  1 36 160       0.00000000
  1 36 161       0.00000000
  1 36 162       0.00000000
  1 36 163       0.00000000
  1 36 164       0.00000000
  1 36 165       0.00000000
  1 36 166       0.00000000
  1 36 167       0.00000000
  1 36 168       0.00000000
  1 36 169       0.00000000
  1 36 170       0.00000000
  1 36 171       0.00000000
  1 36 172       0.00000000
  1 36 173       0.00000000
  1 37 152       0.00000000
  1 37 153       0.00000000
  1 37 154       0.00000000
  1 37 155       0.00000000
  1 37 156       0.00000000
  1 37 157       0.00000000
  1 37 158       0.00000000
  1 37 159       0.00000000
  1 37 160       0.00000000
  1 37 161       0.00000000
  1 37 162       0.00000000
  1 37 163       0.00000000
  1 37 164       0.00000000
  1 37 165       0.00000000
  1 37 166       0.00000000
  1 37 167       0.00000000
  1 37 168       0.00000000
  1 37 169       0.00000000
  1 37 170       0.00000000
  1 37 172       0.00000000
  1 37 173       0.00000000
  1 37 174       0.00000000
  1 38 151       0.00000000
  1 38 152       0.00000000
  1 38 153       0.00000000
  1 38 154       0.00000000
  1 38 155       0.00000000
  1 38 156       0.00000000
  1 38 157       0.00000000
  1 38 158       0.00000000
  1 38 159       0.00000000
  1 38 160       0.00000000
  1 38 161       0.00000000
  1 38 162       0.00000000
  1 38 163       0.00000000
  1 38 164       0.00000000
  1 38 165       0.00000000
  1 38 166       0.00000000
  1 38 167       0.00000000
  1 38 168       0.00000000
  1 38 169       0.00000000
  1 38 170       0.00000000
  1 38 172       0.00000000
  1 38 173       0.00000000
  1 38 174       0.00000000
  1 39 150       0.00000000
  1 39 151       0.00000000
  1 39 152       0.00000000
  1 39 153       0.00000000
  1 39 154       0.00000000
  1 39 155       0.00000000
  1 39 156       0.00000000
  1 39 157       0.00000000
  1 39 158       0.00000000
  1 39 159       0.00000000
  1 39 160       0.00000000
  1 39 161       0.00000000
  1 39 162       0.00000000
  1 39 163       0.00000000
  1 39 164       0.00000000
  1 39 165       0.00000000
  1 39 166       0.00000000
  1 39 167       0.00000000
  1 39 168       0.00000000
  1 39 169       0.00000000
  1 39 171       0.00000000
  1 39 172       0.00000000
  1 39 173       0.00000000
  1 39 175       0.00000000
  1 40 150       0.00000000
  1 40 151       0.00000000
  1 40 152       0.00000000
  1 40 153       0.00000000
  1 40 154       0.00000000
  1 40 155       0.00000000
  1 40 156       0.00000000
  1 40 157       0.00000000
  1 40 158       0.00000000
  1 40 159       0.00000000
  1 40 160       0.00000000
  1 40 161       0.00000000
  1 40 162       0.00000000
  1 40 163       0.00000000
  1 40 164       0.00000000
  1 40 165       0.00000000
  1 40 166       0.00000000
  1 40 167       0.00000000
  1 40 168       0.00000000
  1 40 169       0.00000000
  1 40 170       0.00000000
  1 40 171       0.00000000
  1 40 172       0.00000000
  1 40 173       0.00000000
  1 40 175       0.00000000
  1 41 149       0.00000000
  1 41 150       0.00000000
  1 41 151       0.00000000
  1 41 152       0.00000000
  1 41 153       0.00000000
  1 41 154       0.00000000
  1 41 155       0.00000000
  1 41 156       0.00000000
  1 41 157       0.00000000
  1 41 158       0.00000000
  1 41 159       0.00000000
  1 41 160       0.00000000
  1 41 161       0.00000000
  1 41 162       0.00000000
  1 41 163       0.00000000
  1 41 164       0.00000000
  1 41 165       0.00000000
  1 41 166       0.00000000
  1 41 167       0.00000000
  1 41 168       0.00000000
  1 41 169       0.00000000
  1 41 170       0.00000000
  1 41 171       0.00000000
  1 41 172       0.00000000
  1 41 174       0.00000000
  1 41 175       0.00000000
  1 42 149       0.00000000
  1 42 150       0.00000000
  1 42 151       0.00000000
  1 42 152       0.00000000
  1 42 153       0.00000000
  1 42 154       0.00000000
  1 42 155       0.00000000
  1 42 156       0.00000000
  1 42 157       0.00000000
  1 42 158       0.00000000
  1 42 159       0.00000000
  1 42 160       0.00000000
  1 42 161       0.00000000
  1 42 162       0.00000000
  1 42 163       0.00000000
  1 42 164       0.00000000
  1 42 165       0.00000000
  1 42 166       0.00000000
  1 42 167       0.00000000
  1 42 168       0.00000000
  1 42 169       0.00000000
  1 42 170       0.00000000
  1 42 171       0.00000000
  1 42 172       0.00000000
  1 42 175       0.00000000
  1 43 148       0.00000000
  1 43 149       0.00000000
  1 43 150       0.00000000
  1 43 151       0.00000000
  1 43 152       0.00000000
  1 43 153       0.00000000
  1 43 154       0.00000000
  1 43 155       0.00000000
  1 43 156       0.00000000
  1 43 157       0.00000000
  1 43 158       0.00000000
  1 43 159       0.00000000
  1 43 160       0.00000000
  1 43 161       0.00000000
  1 43 162       0.00000000
  1 43 163       0.00000000
  1 43 164       0.00000000
  1 43 165       0.00000000
  1 43 166       0.00000000
  1 43 167       0.00000000
  1 43 168       0.00000000
  1 43 169       0.00000000
  1 43 170       0.00000000
  1 44 148       0.00000000
  1 44 149       0.00000000
  1 44 150       0.00000000
  1 44 151       0.00000000
  1 44 152       0.00000000
  1 44 153       0.00000000
  1 44 154       0.00000000
  1 44 155       0.00000000
  1 44 156       0.00000000
  1 44 157       0.00000000
  1 44 158       0.00000000
  1 44 159       0.00000000
  1 44 160       0.00000000
  1 44 161       0.00000000
  1 44 162       0.00000000
  1 44 163       0.00000000
  1 44 164       0.00000000
  1 44 165       0.00000000
  1 44 166       0.00000000
  1 44 167       0.00000000
  1 44 168       0.00000000
  1 44 169       0.00000000
  1 44 170       0.00000000
  1 44 171       0.00000000
  1 44 172       0.00000000
  1 44 173       0.00000000
  1 44 175       0.00000000
  1 45 147       0.00000000
  1 45 148       0.00000000
  1 45 149       0.00000000
  1 45 152       0.00000000
  1 45 153       0.00000000
  1 45 154       0.00000000
  1 45 155       0.00000000
  1 45 156       0.00000000
  1 45 157       0.00000000
  1 45 158       0.00000000
  1 45 159       0.00000000
  1 45 160       0.00000000
  1 45 161       0.00000000
  1 45 162       0.00000000
  1 45 163       0.00000000
  1 45 164       0.00000000
  1 45 165       0.00000000
  1 45 166       0.00000000
  1 45 167       0.00000000
  1 45 168       0.00000000
  1 45 169       0.00000000
  1 45 170       0.00000000
  1 45 171       0.00000000
  1 45 172       0.00000000
  1 45 173       0.00000000
  1 45 174       0.00000000
  1 45 175       0.00000000
  1 46 152       0.00000000
  1 46 153       0.00000000
  1 46 154       0.00000000
  1 46 155       0.00000000
  1 46 156       0.00000000
  1 46 157       0.00000000
  1 46 158       0.00000000
  1 46 159       0.00000000
  1 46 160       0.00000000
  1 46 161       0.00000000
  1 46 162       0.00000000
  1 46 163       0.00000000
  1 46 164       0.00000000
  1 46 165       0.00000000
  1 46 166       0.00000000
  1 46 167       0.00000000
  1 46 168       0.00000000
  1 46 170       0.00000000
  1 46 171       0.00000000
  1 46 172       0.00000000
  1 46 173       0.00000000
  1 46 174       0.00000000
  1 47 152       0.00000000
  1 47 153       0.00000000
  1 47 154       0.00000000
  1 47 155       0.00000000
  1 47 156       0.00000000
  1 47 157       0.00000000
  1 47 158       0.00000000
  1 47 159       0.00000000
  1 47 160       0.00000000
  1 47 161       0.00000000
  1 47 162       0.00000000
  1 47 163       0.00000000
  1 47 164       0.00000000
  1 47 165       0.00000000
  1 47 166       0.00000000
  1 47 167       0.00000000
  1 47 168       0.00000000
  1 47 170       0.00000000
  1 47 171       0.00000000
  1 47 172       0.00000000
  1 47 173       0.00000000
  1 48 153       0.00000000
  1 48 154       0.00000000
  1 48 155       0.00000000
  1 48 156       0.00000000
  1 48 157       0.00000000
  1 48 158       0.00000000
  1 48 159       0.00000000
  1 48 160       0.00000000
  1 48 161       0.00000000
  1 48 162       0.00000000
  1 48 163       0.00000000
  1 48 164       0.00000000
  1 48 165       0.00000000
  1 48 166       0.00000000
  1 48 167       0.00000000
  1 48 168       0.00000000
  1 48 169       0.00000000
  1 48 170       0.00000000
  1 48 171       0.00000000
  1 48 172       0.00000000
  1 48 173       0.00000000
  1 49 152       0.00000000
  1 49 153       0.00000000
  1 49 154       0.00000000
  1 49 155       0.00000000
  1 49 156       0.00000000
  1 49 157       0.00000000
  1 49 158       0.00000000
  1 49 159       0.00000000
  1 49 160       0.00000000
  1 49 161       0.00000000
  1 49 162       0.00000000
  1 49 163       0.00000000
  1 49 164       0.00000000
  1 49 165       0.00000000
  1 49 166       0.00000000
  1 49 167       0.00000000
  1 49 168       0.00000000
  1 49 169       0.00000000
  1 49 170       0.00000000
  1 49 171       0.00000000
  1 49 172       0.00000000
  1 50 153       0.00000000
  1 50 154       0.00000000
  1 50 155       0.00000000
  1 50 156       0.00000000
  1 50 157       0.00000000
  1 50 158       0.00000000
  1 50 159       0.00000000
  1 50 160       0.00000000
  1 50 161       0.00000000
  1 50 162       0.00000000
  1 50 163       0.00000000
  1 50 164       0.00000000
  1 50 165       0.00000000
  1 50 166       0.00000000
  1 50 167       0.00000000
  1 50 168       0.00000000
  1 50 169       0.00000000
  1 50 170       0.00000000
  1 50 171       0.00000000
  1 50 173       0.00000000
  1 51 153       0.00000000
  1 51 154       0.00000000
  1 51 155       0.00000000
  1 51 156       0.00000000
  1 51 157       0.00000000
  1 51 158       0.00000000
  1 51 159       0.00000000
  1 51 160       0.00000000
  1 51 161       0.00000000
  1 51 162       0.00000000
  1 51 163       0.00000000
  1 51 164       0.00000000
  1 51 165       0.00000000
  1 51 166       0.00000000
  1 51 167       0.00000000
  1 51 168       0.00000000
  1 51 169       0.00000000
  1 51 170       0.00000000
  1 51 171       0.00000000
  1 52 153       0.00000000
  1 52 154       0.00000000
  1 52 155       0.00000000
  1 52 156       0.00000000
  1 52 157       0.00000000
  1 52 158       0.00000000
  1 52 159       0.00000000
  1 52 160       0.00000000
  1 52 161       0.00000000
  1 52 162       0.00000000
  1 52 163       0.00000000
  1 52 164       0.00000000
  1 52 165       0.00000000
  1 52 166       0.00000000
  1 52 167       0.00000000
  1 52 168       0.00000000
  1 52 169       0.00000000
  1 52 170       0.00000000
  1 52 172       0.00000000
  1 53 154       0.00000000
  1 53 155       0.00000000
  1 53 156       0.00000000
  1 53 157       0.00000000
  1 53 158       0.00000000
  1 53 159       0.00000000
  1 53 160       0.00000000
  1 53 161       0.00000000
  1 53 162       0.00000000
  1 53 163       0.00000000
  1 53 164       0.00000000
  1 53 165       0.00000000
  1 53 166       0.00000000
  1 53 167       0.00000000
  1 53 168       0.00000000
  1 53 169       0.00000000
  1 53 170       0.00000000
  1 54 154       0.00000000
  1 54 155       0.00000000
  1 54 156       0.00000000
  1 54 157       0.00000000
  1 54 158       0.00000000
  1 54 159       0.00000000
  1 54 160       0.00000000
  1 54 161       0.00000000
  1 54 162       0.00000000
  1 54 163       0.00000000
  1 54 164       0.00000000
  1 54 165       0.00000000
  1 54 166       0.00000000
  1 54 167       0.00000000
  1 54 168       0.00000000
  1 54 169       0.00000000
  1 54 170       0.00000000
  1 54 171       0.00000000
  1 54 172       0.00000000
  1 55 155       0.00000000
  1 55 156       0.00000000
  1 55 157       0.00000000
  1 55 158       0.00000000
  1 55 159       0.00000000
  1 55 160       0.00000000
  1 55 161       0.00000000
  1 55 162       0.00000000
  1 55 163       0.00000000
  1 55 164       0.00000000
  1 55 165       0.00000000
  1 55 166       0.00000000
  1 55 167       0.00000000
  1 55 168       0.00000000
  1 55 169       0.00000000
  1 55 170       0.00000000
  1 55 171       0.00000000
  1 55 172       0.00000000
  1 55 173       0.00000000
  1 56 155       0.00000000
  1 56 156       0.00000000
  1 56 157       0.00000000
  1 56 158       0.00000000
  1 56 159       0.00000000
  1 56 160       0.00000000
  1 56 161       0.00000000
  1 56 162       0.00000000
  1 56 163       0.00000000
  1 56 164       0.00000000
  1 56 165       0.00000000
  1 56 166       0.00000000
  1 56 167       0.00000000
  1 56 168       0.00000000
  1 56 169       0.00000000
  1 56 170       0.00000000
  1 56 171       0.00000000
  1 56 173       0.00000000
  1 57 156       0.00000000
  1 57 157       0.00000000
  1 57 158       0.00000000
  1 57 159       0.00000000
  1 57 160       0.00000000
  1 57 161       0.00000000
  1 57 162       0.00000000
  1 57 163       0.00000000
  1 57 164       0.00000000
  1 57 165       0.00000000
  1 57 166       0.00000000
  1 57 167       0.00000000
  1 57 168       0.00000000
  1 57 169       0.00000000
  1 57 170       0.00000000
  1 57 171       0.00000000
  1 57 172       0.00000000
  1 58 157       0.00000000
  1 58 158       0.00000000
  1 58 159       0.00000000
  1 58 160       0.00000000
  1 58 161       0.00000000
  1 58 162       0.00000000
  1 58 163       0.00000000
  1 58 164       0.00000000
  1 58 171       0.00000000
  1 58 172       0.00000000
  1 58 173       0.00000000
  1 59 160       0.00000000
  1 59 161       0.00000000
  1 59 172       0.00000000
  1 59 175       0.00000000
  1 106 165       0.00000000
  1 106 166       0.00000000
  1 106 167       0.00000000
  1 106 168       0.00000000
  1 106 169       0.00000000
  1 106 170       0.00000000
  1 106 171       0.00000000
  1 106 172       0.00000000
  1 107 165       0.00000000
  1 107 166       0.00000000
  1 107 167       0.00000000
  1 107 168       0.00000000
  1 107 169       0.00000000
  1 107 170       0.00000000
  1 107 171       0.00000000
  1 107 172       0.00000000
  1 108 164       0.00000000
  1 108 165       0.00000000
  1 108 166       0.00000000
  1 108 167       0.00000000
  1 108 168       0.00000000
  1 108 169       0.00000000
  1 108 170       0.00000000
  1 108 171       0.00000000
  1 108 172       0.00000000
  1 108 173       0.00000000
  1 109 164       0.00000000
  1 109 165       0.00000000
  1 109 166       0.00000000
  1 109 167       0.00000000
  1 109 168       0.00000000
  1 109 169       0.00000000
  1 109 170       0.00000000
  1 109 171       0.00000000
  1 109 172       0.00000000
  1 109 173       0.00000000
  1 110 164       0.00000000
  1 110 165       0.00000000
  1 110 166       0.00000000
  1 110 169       0.00000000
  1 110 170       0.00000000
  1 110 171       0.00000000
  1 110 172       0.00000000
  1 110 173       0.00000000
  1 111 165       0.00000000
  1 111 170       0.00000000
  1 111 171       0.00000000
  1 111 172       0.00000000
  1 111 173       0.00000000
  1 111 174       0.00000000
  1 112 169       0.00000000
  1 112 170       0.00000000
  1 112 171       0.00000000
  1 112 172       0.00000000
  1 112 173       0.00000000
  1 112 174       0.00000000
  1 113 169       0.00000000
  1 113 170       0.00000000
  1 113 171       0.00000000
  1 113 172       0.00000000
  1 113 173       0.00000000
  1 114 169       0.00000000
  1 114 170       0.00000000
  1 114 171       0.00000000
  1 114 172       0.00000000
  1 114 173       0.00000000
  1 115 169       0.00000000
  1 115 170       0.00000000
  1 115 171       0.00000000
  1 115 172       0.00000000
  1 115 173       0.00000000
  1 115 174       0.00000000
  1 116 168       0.00000000
  1 116 169       0.00000000
  1 116 170       0.00000000
  1 116 171       0.00000000
  1 116 172       0.00000000
  1 116 173       0.00000000
  1 117 169       0.00000000
  1 117 170       0.00000000
  1 117 171       0.00000000
  1 117 172       0.00000000
  1 117 173       0.00000000
  1 118 169       0.00000000
  1 118 170       0.00000000
  1 118 171       0.00000000
  1 118 172       0.00000000
  1 118 173       0.00000000
  1 119 170       0.00000000
  1 119 171       0.00000000
  1 119 172       0.00000000
  1 119 173       0.00000000
  1 119 174       0.00000000
  1 120 171       0.00000000
  1 120 172       0.00000000
  1 120 173       0.00000000
  1 121 171       0.00000000
  1 121 172       0.00000000
END period  1

