BEGIN options
END options

BEGIN packages
  DIS6  first_2D.dis  dis
  IC6  first_2D.ic  ic
  OC6  first_2D.oc  oc
  NPF6  first_2D.npf  npf
  RCH6  first_2D.rcha  rcha
  RCH6  first_2D.rch  p_ag
  RCH6  irr.rch  irr
  WEL6  wel.wel  wel
  WEL6  Corb.wel  corb
  CHD6  thuir.chd  thuir
  CHD6  sea.chd  sea
  DRN6  eta.drn  eta
  RIV6  agy.chd  agy
  RIV6  Tet.chd  tet
  RIV6  Rea.chd  rea
  RIV6  Cant.chd  cant
  RIV6  Tech.chd  tech
  RIV6  Bol.chd  bol
END packages

