BEGIN options
  SAVE_FLOWS
END options

BEGIN dimensions
  MAXBOUND  7094
END dimensions

BEGIN period  1
  1 4 135      14.89000034       0.01000000
  1 4 136      19.47999954       0.01000000
  1 4 137      28.53000069       0.01000000
  1 4 138      36.75000000       0.01000000
  1 4 139      44.74000168       0.01000000
  1 4 140       1.65000010       0.01000000
  1 4 141      -0.56000000       0.01000000
  1 5 134      10.18999958       0.01000000
  1 5 135      32.65000153       0.01000000
  1 5 136      36.97000122       0.01000000
  1 5 137      37.97000122       0.01000000
  1 5 138      42.59000015       0.01000000
  1 5 139      44.58000183       0.01000000
  1 5 140      50.56000137       0.01000000
  1 5 141      31.95000076       0.01000000
  1 6 135       8.14000034       0.01000000
  1 6 136      37.09000015       0.01000000
  1 6 137      38.50000000       0.01000000
  1 6 138      37.15000153       0.01000000
  1 6 139      39.50000000       0.01000000
  1 6 140      42.40999985       0.01000000
  1 6 141      49.15999985       0.01000000
  1 6 142      52.00000000       0.01000000
  1 6 143      54.93000031       0.01000000
  1 7 135      10.60000038       0.01000000
  1 7 136      40.34000015       0.01000000
  1 7 137      47.09000015       0.01000000
  1 7 138      44.34000015       0.01000000
  1 7 139      43.88000107       0.01000000
  1 7 140      52.52000046       0.01000000
  1 7 141      45.97000122       0.01000000
  1 7 142      52.29000092       0.01000000
  1 7 143      53.40000153       0.01000000
  1 7 144      44.50000000       0.01000000
  1 8 135      -0.93000000       0.01000000
  1 8 136      42.06000137       0.01000000
  1 8 137      47.95000076       0.01000000
  1 8 138      47.38000107       0.01000000
  1 8 139      44.52000046       0.01000000
  1 8 140      39.56000137       0.01000000
  1 8 141      48.63000107       0.01000000
  1 8 142      43.25000000       0.01000000
  1 8 143      43.13000107       0.01000000
  1 8 144      41.84000015       0.01000000
  1 8 145      43.63000107       0.01000000
  1 9 136      13.52000046       0.01000000
  1 9 137      46.49000168       0.01000000
  1 9 138      46.00000000       0.01000000
  1 9 139      41.99000168       0.01000000
  1 9 140      40.24000168       0.01000000
  1 9 141      48.27000046       0.01000000
  1 9 142      55.47000122       0.01000000
  1 9 143      52.38000107       0.01000000
  1 9 144      42.59000015       0.01000000
  1 9 145      46.63000107       0.01000000
  1 9 146      45.40000153       0.01000000
  1 10 137      36.11000061       0.01000000
  1 10 138      41.81000137       0.01000000
  1 10 139      36.59000015       0.01000000
  1 10 140      39.06000137       0.01000000
  1 10 141      41.43000031       0.01000000
  1 10 142      43.72000122       0.01000000
  1 10 143      34.95000076       0.01000000
  1 10 144      23.79000092       0.01000000
  1 10 145      25.06999969       0.01000000
  1 11 139      20.12000084       0.01000000
  1 11 140      11.97999954       0.01000000
  1 11 141      35.29000092       0.01000000
  1 11 142      24.87000084       0.01000000
  1 11 143      15.51000023       0.01000000
  1 11 144      29.63999939       0.01000000
  1 11 145      38.84000015       0.01000000
  1 12 138      33.84000015       0.01000000
  1 12 139      27.42000008       0.01000000
  1 12 140       6.86000013       0.01000000
  1 12 141       9.77000046       0.01000000
  1 12 142       2.01999998       0.01000000
  1 12 143      12.81999969       0.01000000
  1 12 144      46.15999985       0.01000000
  1 12 145      48.00000000       0.01000000
  1 13 139      22.47999954       0.01000000
  1 13 140      11.68999958       0.01000000
  1 13 141       2.99000001       0.01000000
  1 13 144       0.79999995       0.01000000
  1 13 145       0.72000003       0.01000000
  1 14 141       6.98000002       0.01000000
  1 14 144       1.20000005       0.01000000
  1 15 139      -1.00000000       0.01000000
  1 15 144       0.01999998       0.01000000
  1 16 144      -0.01999998       0.01000000
  1 17 144       0.44000006       0.01000000
  1 18 144       1.08999991       0.01000000
  1 19 143       1.46000004       0.01000000
  1 19 144       0.79999995       0.01000000
  1 20 143      -0.44999999       0.01000000
  1 21 142       4.71000004       0.01000000
  1 21 143      -0.56000000       0.01000000
  1 22 141       0.98000002       0.01000000
  1 22 142      -0.37000000       0.01000000
  1 22 143       0.91999996       0.01000000
  1 23 128      -0.31000000       0.01000000
  1 23 140       1.13000011       0.01000000
  1 23 141       0.33000004       0.01000000
  1 23 142      -0.93000000       0.01000000
  1 23 143      -0.93000000       0.01000000
  1 24 126      25.31999969       0.01000000
  1 24 127      -0.13000000       0.01000000
  1 24 128      -0.44000000       0.01000000
  1 24 140       0.38999999       0.01000000
  1 24 141      -0.93000000       0.01000000
  1 24 142       0.34000003       0.01000000
  1 24 143       1.44000006       0.01000000
  1 25 125      -0.69999999       0.01000000
  1 25 126      -0.69999999       0.01000000
  1 25 139       1.00999999       0.01000000
  1 25 140      -0.93000000       0.01000000
  1 25 141       0.33000004       0.01000000
  1 25 142       0.61000001       0.01000000
  1 25 143       1.90000010       0.01000000
  1 26 122      10.72999954       0.01000000
  1 26 123      -0.44000000       0.01000000
  1 26 139       6.13000011       0.01000000
  1 26 140      -0.93000000       0.01000000
  1 26 141       0.75000000       0.01000000
  1 26 142       0.98000002       0.01000000
  1 27 118      10.10000038       0.01000000
  1 27 119       1.09999990       0.01000000
  1 27 120      -0.31999999       0.01000000
  1 27 121      -0.50999999       0.01000000
  1 27 122      -0.44000000       0.01000000
  1 27 139       0.62000000       0.01000000
  1 27 140       0.38000000       0.01000000
  1 27 141       0.85000002       0.01000000
  1 27 142       0.84000003       0.01000000
  1 28 115      11.22000027       0.01000000
  1 28 116       9.67000008       0.01000000
  1 28 117      11.27000046       0.01000000
  1 28 118       4.23000002       0.01000000
  1 28 119      -0.24000001       0.01000000
  1 28 120      -0.80000000       0.01000000
  1 28 121      -0.80000000       0.01000000
  1 28 140      12.35000038       0.01000000
  1 28 141       0.76999998       0.01000000
  1 28 142       0.85000002       0.01000000
  1 29 112      13.18999958       0.01000000
  1 29 113      14.52999973       0.01000000
  1 29 114       1.96000004       0.01000000
  1 29 115       1.25000000       0.01000000
  1 29 116       3.17000008       0.01000000
  1 29 117       3.21000004       0.01000000
  1 29 118       0.76999998       0.01000000
  1 29 119      -0.69999999       0.01000000
  1 29 141       0.73000002       0.01000000
  1 29 142       1.29999995       0.01000000
  1 30 111      13.31999969       0.01000000
  1 30 112       8.35000038       0.01000000
  1 30 113       3.71000004       0.01000000
  1 30 114       0.33000004       0.01000000
  1 30 115      -0.13000000       0.01000000
  1 30 116      -0.56999999       0.01000000
  1 30 117      -0.59999999       0.01000000
  1 30 118      -0.63999999       0.01000000
  1 30 119      -0.83000000       0.01000000
  1 30 139      -0.19000000       0.01000000
  1 30 141       0.36000001       0.01000000
  1 30 142       1.67000008       0.01000000
  1 31 110      14.47000027       0.01000000
  1 31 111       7.85999966       0.01000000
  1 31 112       4.09000015       0.01000000
  1 31 113       0.75000000       0.01000000
  1 31 114      -0.25000000       0.01000000
  1 31 115      -0.50000000       0.01000000
  1 31 116      -0.69000000       0.01000000
  1 31 117      -0.69000000       0.01000000
  1 31 118      -0.95000000       0.01000000
  1 31 139       0.01999998       0.01000000
  1 31 141      -0.00999999       0.01000000
  1 31 142       1.41000009       0.01000000
  1 32 109      10.82999992       0.01000000
  1 32 110       5.90000010       0.01000000
  1 32 111       1.20000005       0.01000000
  1 32 112      -0.30000001       0.01000000
  1 32 113      -0.45999998       0.01000000
  1 32 114      -1.05000000       0.01000000
  1 32 115      -0.38000000       0.01000000
  1 32 116      -1.12000000       0.01000000
  1 32 117      -1.05000000       0.01000000
  1 32 118      -0.75000000       0.01000000
  1 32 138       2.14000010       0.01000000
  1 32 139      -0.17000002       0.01000000
  1 32 140      -0.93000000       0.01000000
  1 32 141       0.53999996       0.01000000
  1 33 108      16.86000061       0.01000000
  1 33 109       9.22000027       0.01000000
  1 33 110       2.19000006       0.01000000
  1 33 111       0.21000004       0.01000000
  1 33 112      -0.63000000       0.01000000
  1 33 113      -0.95000000       0.01000000
  1 33 114      -0.84999999       0.01000000
  1 33 115      -1.10000000       0.01000000
  1 33 116      -1.07000000       0.01000000
  1 33 117      -0.80000000       0.01000000
  1 33 139       0.11000001       0.01000000
  1 33 140       0.25999999       0.01000000
  1 33 141       0.87000000       0.01000000
  1 34 107      30.81999969       0.01000000
  1 34 108      15.39999962       0.01000000
  1 34 109       9.10000038       0.01000000
  1 34 110       3.15000010       0.01000000
  1 34 111       0.37000000       0.01000000
  1 34 112      -0.19999999       0.01000000
  1 34 113      -0.24000001       0.01000000
  1 34 114      -0.59999999       0.01000000
  1 34 115      -0.91000000       0.01000000
  1 34 116      -0.90000000       0.01000000
  1 34 117      -0.75000000       0.01000000
  1 34 120      -0.50000000       0.01000000
  1 34 141       5.00000000       0.01000000
  1 35 104      40.97000122       0.01000000
  1 35 105      32.04000092       0.01000000
  1 35 106      25.86000061       0.01000000
  1 35 107      23.20999908       0.01000000
  1 35 108      12.84000015       0.01000000
  1 35 109       9.09000015       0.01000000
  1 35 110       4.28000021       0.01000000
  1 35 111       2.54999995       0.01000000
  1 35 112       2.14000010       0.01000000
  1 35 113       3.25000000       0.01000000
  1 35 114       0.00999999       0.01000000
  1 35 115      -0.38000000       0.01000000
  1 35 116      -0.06999999       0.01000000
  1 35 117       1.07999992       0.01000000
  1 35 118      -0.13999999       0.01000000
  1 35 119      -0.84999999       0.01000000
  1 35 120      -0.53000000       0.01000000
  1 35 135      -0.31999999       0.01000000
  1 35 140       0.38999999       0.01000000
  1 35 141       1.93000007       0.01000000
  1 36 104      33.74000168       0.01000000
  1 36 105      29.26000023       0.01000000
  1 36 106      23.44000053       0.01000000
  1 36 107      19.42000008       0.01000000
  1 36 108      12.88000011       0.01000000
  1 36 109       9.81999969       0.01000000
  1 36 110       9.60999966       0.01000000
  1 36 111       6.65000010       0.01000000
  1 36 112       2.88000011       0.01000000
  1 36 113       1.48000002       0.01000000
  1 36 114       0.07000005       0.01000000
  1 36 115      -0.50000000       0.01000000
  1 36 116       0.84000003       0.01000000
  1 36 117      -0.12000000       0.01000000
  1 36 118      -0.53999999       0.01000000
  1 36 119      -0.53000000       0.01000000
  1 36 120      -0.89000000       0.01000000
  1 36 121      -0.50000000       0.01000000
  1 36 139      -0.31999999       0.01000000
  1 36 140       1.75000000       0.01000000
  1 36 141       1.28999996       0.01000000
  1 37 104      27.89999962       0.01000000
  1 37 105      23.81999969       0.01000000
  1 37 106      19.52000046       0.01000000
  1 37 107      18.07999992       0.01000000
  1 37 108      13.85999966       0.01000000
  1 37 109      11.38000011       0.01000000
  1 37 110       7.85000038       0.01000000
  1 37 111       5.69000006       0.01000000
  1 37 112       4.19000006       0.01000000
  1 37 113       2.14000010       0.01000000
  1 37 114       1.25000000       0.01000000
  1 37 115       0.00999999       0.01000000
  1 37 116       1.50999999       0.01000000
  1 37 117       1.74000001       0.01000000
  1 37 118       0.21000004       0.01000000
  1 37 119      -0.62000000       0.01000000
  1 37 120      -0.06999999       0.01000000
  1 37 121      -0.66999999       0.01000000
  1 37 139       0.38000000       0.01000000
  1 37 140       0.04999995       0.01000000
  1 37 141       1.33999991       0.01000000
  1 38 105      23.89999962       0.01000000
  1 38 106      19.94000053       0.01000000
  1 38 107      17.45999908       0.01000000
  1 38 108      13.14000034       0.01000000
  1 38 109      10.93999958       0.01000000
  1 38 110       8.35000038       0.01000000
  1 38 111       6.53000021       0.01000000
  1 38 112       4.63000011       0.01000000
  1 38 113       4.07000017       0.01000000
  1 38 114       3.67000008       0.01000000
  1 38 115       0.97000003       0.01000000
  1 38 116       1.80999994       0.01000000
  1 38 117       1.21000004       0.01000000
  1 38 118       0.03999996       0.01000000
  1 38 119      -0.24000001       0.01000000
  1 38 120      -0.53999999       0.01000000
  1 38 121      -0.53999999       0.01000000
  1 38 137       0.41999996       0.01000000
  1 38 138       0.83000004       0.01000000
  1 38 139       0.32000005       0.01000000
  1 38 140       0.12000000       0.01000000
  1 38 141       0.90999997       0.01000000
  1 39 105      22.02000046       0.01000000
  1 39 106      19.00000000       0.01000000
  1 39 107      16.63999939       0.01000000
  1 39 108      13.30000019       0.01000000
  1 39 109      10.98999977       0.01000000
  1 39 110       8.10000038       0.01000000
  1 39 111       6.80000019       0.01000000
  1 39 112       7.68000031       0.01000000
  1 39 113       5.38000011       0.01000000
  1 39 114       3.78000021       0.01000000
  1 39 115       3.21000004       0.01000000
  1 39 116       2.48000002       0.01000000
  1 39 117       3.28000021       0.01000000
  1 39 118       1.04999995       0.01000000
  1 39 119      -0.32999998       0.01000000
  1 39 120      -0.53999999       0.01000000
  1 39 121      -0.53999999       0.01000000
  1 39 122      -0.59999999       0.01000000
  1 39 139       0.09000003       0.01000000
  1 39 140       0.37000000       0.01000000
  1 39 141       1.06999993       0.01000000
  1 40 92      61.31999969       0.01000000
  1 40 93      59.29999924       0.01000000
  1 40 94      57.72000122       0.01000000
  1 40 95      54.54000092       0.01000000
  1 40 96      50.65999985       0.01000000
  1 40 97      48.00000000       0.01000000
  1 40 98      44.34000015       0.01000000
  1 40 99      40.91999817       0.01000000
  1 40 103      26.23999977       0.01000000
  1 40 104      24.79000092       0.01000000
  1 40 105      21.89999962       0.01000000
  1 40 106      19.81999969       0.01000000
  1 40 107      16.54999924       0.01000000
  1 40 108      13.47000027       0.01000000
  1 40 109      10.93000031       0.01000000
  1 40 110       8.93000031       0.01000000
  1 40 111       7.60999966       0.01000000
  1 40 112       6.78000021       0.01000000
  1 40 113       5.21000004       0.01000000
  1 40 114       3.98000002       0.01000000
  1 40 115       3.96000004       0.01000000
  1 40 116       2.91000009       0.01000000
  1 40 117       3.19000006       0.01000000
  1 40 118       2.40000010       0.01000000
  1 40 119       0.32000005       0.01000000
  1 40 120      -0.07999998       0.01000000
  1 40 121      -0.06999999       0.01000000
  1 40 122       0.11000001       0.01000000
  1 40 137       0.48000002       0.01000000
  1 40 138      -0.06999999       0.01000000
  1 40 139       0.59000003       0.01000000
  1 40 140       0.63000000       0.01000000
  1 40 141       0.65999997       0.01000000
  1 41 87      74.44999695       0.01000000
  1 41 88      69.69000244       0.01000000
  1 41 89      60.41999817       0.01000000
  1 41 90      55.63999939       0.01000000
  1 41 91      56.77999878       0.01000000
  1 41 92      55.52000046       0.01000000
  1 41 93      56.11999893       0.01000000
  1 41 94      55.52000046       0.01000000
  1 41 95      52.38000107       0.01000000
  1 41 96      49.59000015       0.01000000
  1 41 97      46.24000168       0.01000000
  1 41 98      43.22000122       0.01000000
  1 41 99      40.20000076       0.01000000
  1 41 100      36.40000153       0.01000000
  1 41 101      33.24000168       0.01000000
  1 41 102      29.23999977       0.01000000
  1 41 103      25.36000061       0.01000000
  1 41 104      22.45999908       0.01000000
  1 41 105      21.42000008       0.01000000
  1 41 106      17.95999908       0.01000000
  1 41 107      15.47999954       0.01000000
  1 41 108      12.85999966       0.01000000
  1 41 109      10.81999969       0.01000000
  1 41 110       8.77000046       0.01000000
  1 41 111       7.34000015       0.01000000
  1 41 112       6.28000021       0.01000000
  1 41 113       6.78000021       0.01000000
  1 41 114       5.69000006       0.01000000
  1 41 115       6.19000006       0.01000000
  1 41 116       3.51000023       0.01000000
  1 41 117       2.54999995       0.01000000
  1 41 118       1.46000004       0.01000000
  1 41 119       0.88999999       0.01000000
  1 41 120       0.10000002       0.01000000
  1 41 121      -0.18000001       0.01000000
  1 41 122      -0.12000000       0.01000000
  1 41 123      -0.49000001       0.01000000
  1 41 139       0.37000000       0.01000000
  1 41 140       0.87000000       0.01000000
  1 41 141       0.79999995       0.01000000
  1 42 87      75.26000214       0.01000000
  1 42 88      65.95999908       0.01000000
  1 42 89      58.43999863       0.01000000
  1 42 90      53.11999893       0.01000000
  1 42 91      51.34000015       0.01000000
  1 42 92      51.09999847       0.01000000
  1 42 93      52.00000000       0.01000000
  1 42 94      51.00000000       0.01000000
  1 42 95      49.20000076       0.01000000
  1 42 96      47.36000061       0.01000000
  1 42 97      44.09999847       0.01000000
  1 42 98      41.25999832       0.01000000
  1 42 99      38.70000076       0.01000000
  1 42 100      35.04000092       0.01000000
  1 42 101      32.29999924       0.01000000
  1 42 102      28.13999939       0.01000000
  1 42 103      24.39999962       0.01000000
  1 42 104      21.97999954       0.01000000
  1 42 105      19.63999939       0.01000000
  1 42 106      17.52000046       0.01000000
  1 42 107      14.81999969       0.01000000
  1 42 108      12.56000042       0.01000000
  1 42 109      10.60000038       0.01000000
  1 42 110       9.77000046       0.01000000
  1 42 111       8.35000038       0.01000000
  1 42 112       7.63000011       0.01000000
  1 42 113       7.60000038       0.01000000
  1 42 114       6.76000023       0.01000000
  1 42 115       6.69000006       0.01000000
  1 42 116       4.23000002       0.01000000
  1 42 117       3.86000013       0.01000000
  1 42 118       3.05000019       0.01000000
  1 42 119       1.04999995       0.01000000
  1 42 120       0.60000002       0.01000000
  1 42 121      -0.07999998       0.01000000
  1 42 122      -0.33999997       0.01000000
  1 42 123      -0.08999997       0.01000000
  1 42 139       0.23000002       0.01000000
  1 42 140       1.33999991       0.01000000
  1 42 141       1.08999991       0.01000000
  1 43 88      57.04000092       0.01000000
  1 43 89      53.29999924       0.01000000
  1 43 90      49.41999817       0.01000000
  1 43 91      43.84000015       0.01000000
  1 43 92      47.08000183       0.01000000
  1 43 93      48.00000000       0.01000000
  1 43 94      46.93999863       0.01000000
  1 43 95      45.40000153       0.01000000
  1 43 96      43.41999817       0.01000000
  1 43 97      41.79999924       0.01000000
  1 43 98      38.95999908       0.01000000
  1 43 99      36.50000000       0.01000000
  1 43 100      32.95999908       0.01000000
  1 43 101      30.29999924       0.01000000
  1 43 102      26.68000031       0.01000000
  1 43 103      23.10000038       0.01000000
  1 43 104      21.05999947       0.01000000
  1 43 105      18.37999916       0.01000000
  1 43 106      16.12000084       0.01000000
  1 43 107      14.23999977       0.01000000
  1 43 108      13.00000000       0.01000000
  1 43 109      10.80000019       0.01000000
  1 43 110       9.89999962       0.01000000
  1 43 111      11.02000046       0.01000000
  1 43 112       8.35000038       0.01000000
  1 43 113       6.86000013       0.01000000
  1 43 114       6.17000008       0.01000000
  1 43 115       5.98000002       0.01000000
  1 43 116       4.59000015       0.01000000
  1 43 117       3.15000010       0.01000000
  1 43 118       2.26999998       0.01000000
  1 43 119       1.13000011       0.01000000
  1 43 120       0.95000005       0.01000000
  1 43 121       0.50000000       0.01000000
  1 43 122      -0.19000000       0.01000000
  1 43 123      -0.18000001       0.01000000
  1 43 124       0.88000000       0.01000000
  1 43 134      -0.13999999       0.01000000
  1 43 135      -0.25000000       0.01000000
  1 43 139       0.64999998       0.01000000
  1 43 140       1.16000009       0.01000000
  1 43 141       1.70000005       0.01000000
  1 44 89      45.74000168       0.01000000
  1 44 90      45.54000092       0.01000000
  1 44 91      39.13999939       0.01000000
  1 44 92      45.36000061       0.01000000
  1 44 93      43.70999908       0.01000000
  1 44 94      42.90000153       0.01000000
  1 44 95      41.58000183       0.01000000
  1 44 96      39.91999817       0.01000000
  1 44 97      38.27999878       0.01000000
  1 44 98      36.50000000       0.01000000
  1 44 99      34.24000168       0.01000000
  1 44 100      31.25000000       0.01000000
  1 44 101      29.10000038       0.01000000
  1 44 102      24.07999992       0.01000000
  1 44 103      22.10000038       0.01000000
  1 44 104      19.95999908       0.01000000
  1 44 105      17.71999931       0.01000000
  1 44 106      15.21999931       0.01000000
  1 44 107      13.42000008       0.01000000
  1 44 108      12.64000034       0.01000000
  1 44 109      12.43999958       0.01000000
  1 44 110      12.61999989       0.01000000
  1 44 111      11.06999969       0.01000000
  1 44 112       8.80000019       0.01000000
  1 44 113       7.77000046       0.01000000
  1 44 114       7.64999962       0.01000000
  1 44 115       6.28000021       0.01000000
  1 44 116       5.09000015       0.01000000
  1 44 117       4.71000004       0.01000000
  1 44 118       3.84000015       0.01000000
  1 44 119       2.00999999       0.01000000
  1 44 120       1.50000000       0.01000000
  1 44 121       0.66999996       0.01000000
  1 44 122       0.13000000       0.01000000
  1 44 123       0.12000000       0.01000000
  1 44 124       0.12000000       0.01000000
  1 44 125      -0.00999999       0.01000000
  1 44 131      -0.38999999       0.01000000
  1 44 132       0.66999996       0.01000000
  1 44 133       0.66999996       0.01000000
  1 44 134      -0.79000001       0.01000000
  1 44 135       1.04999995       0.01000000
  1 44 136       0.66999996       0.01000000
  1 44 139       1.56999993       0.01000000
  1 44 141       1.56999993       0.01000000
  1 45 89      42.18000031       0.01000000
  1 45 90      41.93000031       0.01000000
  1 45 91      39.00999832       0.01000000
  1 45 92      41.04999924       0.01000000
  1 45 93      40.50999832       0.01000000
  1 45 94      39.77000046       0.01000000
  1 45 95      38.04000092       0.01000000
  1 45 96      36.86000061       0.01000000
  1 45 97      34.63999939       0.01000000
  1 45 98      33.47999954       0.01000000
  1 45 99      31.54000092       0.01000000
  1 45 100      28.29999924       0.01000000
  1 45 101      26.29999924       0.01000000
  1 45 102      23.35000038       0.01000000
  1 45 103      20.36000061       0.01000000
  1 45 104      18.65999985       0.01000000
  1 45 105      16.79999924       0.01000000
  1 45 106      15.28000069       0.01000000
  1 45 107      14.96000004       0.01000000
  1 45 108      13.19999981       0.01000000
  1 45 109      12.93999958       0.01000000
  1 45 110      12.69999981       0.01000000
  1 45 111      11.73999977       0.01000000
  1 45 112      10.46000004       0.01000000
  1 45 113       8.02999973       0.01000000
  1 45 114       6.88000011       0.01000000
  1 45 115       5.94000006       0.01000000
  1 45 116       7.25000000       0.01000000
  1 45 117       4.15000010       0.01000000
  1 45 118       3.26000023       0.01000000
  1 45 119       2.25000000       0.01000000
  1 45 120       1.49000001       0.01000000
  1 45 121       0.71000004       0.01000000
  1 45 122       0.63999999       0.01000000
  1 45 123       0.53999996       0.01000000
  1 45 124       0.51999998       0.01000000
  1 45 125       0.21000004       0.01000000
  1 45 126       0.21000004       0.01000000
  1 45 127       0.53999996       0.01000000
  1 45 128       0.04999995       0.01000000
  1 45 129       0.64999998       0.01000000
  1 45 130       0.45000005       0.01000000
  1 45 131      -0.38999999       0.01000000
  1 45 132      -0.37000000       0.01000000
  1 45 133      -0.50000000       0.01000000
  1 45 134       0.22000003       0.01000000
  1 45 135       0.53999996       0.01000000
  1 45 136       0.49000001       0.01000000
  1 45 137       0.03999996       0.01000000
  1 45 138       0.91999996       0.01000000
  1 45 139       0.75000000       0.01000000
  1 45 140       0.01999998       0.01000000
  1 45 141      -0.93000000       0.01000000
  1 46 88      43.72000122       0.01000000
  1 46 89      39.18000031       0.01000000
  1 46 90      36.79999924       0.01000000
  1 46 91      34.11999893       0.01000000
  1 46 92      37.52000046       0.01000000
  1 46 93      37.13999939       0.01000000
  1 46 94      36.41999817       0.01000000
  1 46 95      34.56000137       0.01000000
  1 46 96      33.15999985       0.01000000
  1 46 97      32.47999954       0.01000000
  1 46 98      29.42000008       0.01000000
  1 46 99      28.44000053       0.01000000
  1 46 100      26.15999985       0.01000000
  1 46 101      24.13999939       0.01000000
  1 46 102      20.32999992       0.01000000
  1 46 103      23.27000046       0.01000000
  1 46 104      18.01000023       0.01000000
  1 46 105      17.77000046       0.01000000
  1 46 106      15.94000053       0.01000000
  1 46 107      15.11000061       0.01000000
  1 46 108      14.17000008       0.01000000
  1 46 109      12.65999985       0.01000000
  1 46 110      10.72000027       0.01000000
  1 46 111      11.88000011       0.01000000
  1 46 112      10.50000000       0.01000000
  1 46 113       8.43000031       0.01000000
  1 46 114       7.43000031       0.01000000
  1 46 115       6.30000019       0.01000000
  1 46 116       5.86000013       0.01000000
  1 46 117       4.36000013       0.01000000
  1 46 118       3.30000019       0.01000000
  1 46 119       2.49000001       0.01000000
  1 46 120       1.51999998       0.01000000
  1 46 121       0.94000006       0.01000000
  1 46 122       1.01999998       0.01000000
  1 46 123       1.03999996       0.01000000
  1 46 124       1.00000000       0.01000000
  1 46 125       0.95000005       0.01000000
  1 46 126       0.88000000       0.01000000
  1 46 127       0.97000003       0.01000000
  1 46 128       0.70000005       0.01000000
  1 46 129       0.70000005       0.01000000
  1 46 130       0.26999998       0.01000000
  1 46 131       0.25000000       0.01000000
  1 46 132      -0.12000000       0.01000000
  1 46 133      -0.13999999       0.01000000
  1 46 134      -0.06999999       0.01000000
  1 46 135       1.00999999       0.01000000
  1 46 136       0.38000000       0.01000000
  1 46 137       0.25000000       0.01000000
  1 46 138      -0.33999997       0.01000000
  1 46 139      -0.17000002       0.01000000
  1 46 140       1.21000004       0.01000000
  1 47 87      45.18000031       0.01000000
  1 47 88      41.54000092       0.01000000
  1 47 89      37.97999954       0.01000000
  1 47 90      36.22000122       0.01000000
  1 47 91      33.95000076       0.01000000
  1 47 92      35.54000092       0.01000000
  1 47 93      34.40000153       0.01000000
  1 47 94      33.81999969       0.01000000
  1 47 95      32.34000015       0.01000000
  1 47 96      31.06000137       0.01000000
  1 47 97      29.44000053       0.01000000
  1 47 98      27.61000061       0.01000000
  1 47 99      25.63999939       0.01000000
  1 47 100      24.06999969       0.01000000
  1 47 101      21.84000015       0.01000000
  1 47 102      20.76000023       0.01000000
  1 47 103      21.62999916       0.01000000
  1 47 104      16.54000092       0.01000000
  1 47 105      15.37999916       0.01000000
  1 47 106      15.45999908       0.01000000
  1 47 107      15.04000092       0.01000000
  1 47 108      14.01000023       0.01000000
  1 47 109      12.97999954       0.01000000
  1 47 110      12.39999962       0.01000000
  1 47 111      10.88000011       0.01000000
  1 47 112      10.50000000       0.01000000
  1 47 113       9.60999966       0.01000000
  1 47 114       8.31000042       0.01000000
  1 47 115       8.22000027       0.01000000
  1 47 116       8.38000011       0.01000000
  1 47 117       4.59000015       0.01000000
  1 47 118       3.15000010       0.01000000
  1 47 119       1.90000010       0.01000000
  1 47 120       1.28999996       0.01000000
  1 47 121       1.34999990       0.01000000
  1 47 122       1.05999994       0.01000000
  1 47 123       1.15000010       0.01000000
  1 47 124       1.28999996       0.01000000