BEGIN options
  SAVE_FLOWS
  SAVE_SPECIFIC_DISCHARGE
END options

BEGIN griddata
  icelltype
    CONSTANT  0
  k
    OPEN/CLOSE  'k.txt'  FACTOR  1.0
END griddata

