BEGIN griddata
  strt
    INTERNAL  FACTOR  1.0
       -49.00000000     -49.00000000     -49.00000000     -49.00000000     -49.00000000     -49.00000000     -49.00000000     -49.00000000     -49.00000000     -49.00000000     -49.00000000     -49.00000000     -49.00000000     -49.00000000     -49.00000000     -49.00000000     -49.00000000     -49.00000000     -49.00000000     -49.00000000
       -49.00000000     -49.00000000     -49.00000000     -49.00000000     -49.00000000     -49.00000000     -49.00000000     -49.00000000     -49.00000000     -49.00000000     -49.00000000     -49.00000000     -49.00000000     -49.00000000     -49.00000000     -49.00000000     -49.00000000     -49.00000000     -49.00000000     -49.00000000
       -49.00000000     -49.00000000     -49.00000000     -49.00000000     -49.00000000     -49.00000000     -49.00000000     -49.00000000     -49.00000000     -49.00000000     -49.00000000     -49.00000000     -49.00000000     -49.00000000     -49.00000000     -49.00000000     -49.00000000     -49.00000000     -49.00000000     -49.00000000
       -49.00000000     -49.00000000     -49.00000000     -49.00000000     -49.00000000     -49.00000000     -49.00000000     -49.00000000     -49.00000000     -49.00000000     -49.00000000     -49.00000000     -49.00000000     -49.00000000     -49.00000000     -49.00000000     -49.00000000     -49.00000000     -49.00000000     -49.00000000
       -49.00000000     -49.00000000     -49.00000000     -49.00000000     -49.00000000     -49.00000000     -49.00000000     -49.00000000     -49.00000000     -49.00000000     -49.00000000     -49.00000000     -49.00000000     -49.00000000     -49.00000000     -49.00000000     -49.00000000     -49.00000000     -49.00000000     -49.00000000
       -49.00000000     -49.00000000     -49.00000000     -49.00000000     -49.00000000     -49.00000000     -49.00000000     -49.00000000     -49.00000000     -49.00000000     -49.00000000     -49.00000000     -49.00000000     -49.00000000     -49.00000000     -49.00000000     -49.00000000     -49.00000000     -49.00000000     -49.00000000
       -49.00000000     -49.00000000     -49.00000000     -49.00000000     -49.00000000     -49.00000000     -49.00000000     -49.00000000     -49.00000000     -49.00000000     -49.00000000     -49.00000000     -49.00000000     -49.00000000     -49.00000000     -49.00000000     -49.00000000     -49.00000000     -49.00000000     -49.00000000
       -49.00000000     -49.00000000     -49.00000000     -49.00000000     -49.00000000     -49.00000000     -49.00000000     -49.00000000     -49.00000000     -49.00000000     -49.00000000     -49.00000000     -49.00000000     -49.00000000     -49.00000000     -49.00000000     -49.00000000     -49.00000000     -49.00000000     -49.00000000
       -49.00000000     -49.00000000     -49.00000000     -49.00000000     -49.00000000     -49.00000000     -49.00000000     -49.00000000     -49.00000000     -49.00000000     -49.00000000     -49.00000000     -49.00000000     -49.00000000     -49.00000000     -49.00000000     -49.00000000     -49.00000000     -49.00000000     -49.00000000
       -49.00000000     -49.00000000     -49.00000000     -49.00000000     -49.00000000     -49.00000000     -49.00000000     -49.00000000     -49.00000000     -49.00000000     -49.00000000     -49.00000000     -49.00000000     -49.00000000     -49.00000000     -49.00000000     -49.00000000     -49.00000000     -49.00000000     -49.00000000
       -49.00000000     -49.00000000     -49.00000000     -49.00000000     -49.00000000     -49.00000000     -49.00000000     -49.00000000     -49.00000000     -49.00000000     -49.00000000     -49.00000000     -49.00000000     -49.00000000     -49.00000000     -49.00000000     -49.00000000     -42.25000000     -44.09999847     -45.34000015
       -46.70000076     -47.56000137     -48.47999954     -49.50000000     -49.50000000     -49.50000000     -48.54000092     -49.50000000     -48.88000107     -48.20999908     -47.84000015     -47.70999908     -48.45999908     -47.79000092     -48.18999863     -49.00000000     -49.00000000     -49.00000000     -49.00000000     -49.00000000
       -49.00000000     -49.00000000     -49.00000000     -49.00000000     -49.00000000     -49.00000000     -49.00000000     -49.00000000     -49.00000000     -49.00000000
       -49.00000000     -49.00000000     -49.00000000     -49.00000000     -49.00000000     -49.00000000     -49.00000000     -49.00000000     -49.00000000     -49.00000000     -49.00000000     -49.00000000     -49.00000000     -49.00000000     -49.00000000     -49.00000000     -49.00000000     -49.00000000     -49.00000000     -49.00000000
       -49.00000000     -49.00000000     -49.00000000     -49.00000000     -49.00000000     -49.00000000     -49.00000000     -49.00000000     -49.00000000     -49.00000000     -49.00000000     -49.00000000     -49.00000000     -49.00000000     -49.00000000     -49.00000000     -49.00000000     -49.00000000     -49.00000000     -49.00000000
       -49.00000000     -49.00000000     -49.00000000     -49.00000000     -49.00000000     -49.00000000     -49.00000000     -49.00000000     -49.00000000     -49.00000000     -49.00000000     -49.00000000     -49.00000000     -49.00000000     -49.00000000     -49.00000000     -49.00000000     -49.00000000     -49.00000000     -49.00000000
       -49.00000000     -49.00000000     -49.00000000     -49.00000000     -49.00000000     -49.00000000     -49.00000000     -49.00000000     -49.00000000     -49.00000000     -49.00000000     -49.00000000     -49.00000000     -49.00000000     -49.00000000     -49.00000000     -49.00000000     -49.00000000     -49.00000000     -49.00000000
       -49.00000000     -49.00000000     -49.00000000     -49.00000000     -49.00000000     -49.00000000     -49.00000000     -49.00000000     -49.00000000     -49.00000000     -49.00000000     -49.00000000     -49.00000000     -49.00000000     -49.00000000     -49.00000000     -49.00000000     -49.00000000     -49.00000000     -49.00000000
       -49.00000000     -49.00000000     -49.00000000     -49.00000000     -49.00000000     -49.00000000     -49.00000000     -49.00000000     -49.00000000     -49.00000000     -49.00000000     -49.00000000     -49.00000000     -49.00000000     -49.00000000     -49.00000000     -49.00000000     -49.00000000     -49.00000000     -49.00000000
       -49.00000000     -49.00000000     -49.00000000     -49.00000000     -49.00000000     -49.00000000     -49.00000000     -49.00000000     -49.00000000     -49.00000000     -49.00000000     -49.00000000     -49.00000000     -49.00000000     -49.00000000     -49.00000000     -49.00000000     -49.00000000     -49.00000000     -49.00000000
       -49.00000000     -49.00000000     -49.00000000     -49.00000000     -49.00000000     -49.00000000     -49.00000000     -49.00000000     -49.00000000     -49.00000000     -49.00000000     -49.00000000     -49.00000000     -49.00000000     -49.00000000     -49.00000000     -49.00000000     -49.00000000     -49.00000000     -49.00000000
       -49.00000000     -49.00000000     -49.00000000     -49.00000000     -49.00000000     -49.00000000     -49.00000000     -49.00000000     -49.00000000     -49.00000000     -49.00000000     -49.00000000     -49.00000000     -49.00000000     -49.00000000     -49.00000000     -49.00000000     -49.00000000     -49.00000000     -49.00000000
       -49.00000000     -49.00000000     -49.00000000     -49.00000000     -49.00000000     -49.00000000     -49.00000000     -49.00000000     -49.00000000     -49.00000000     -49.00000000     -49.00000000     -49.00000000     -49.00000000     -49.00000000     -49.00000000     -49.00000000     -49.00000000     -49.00000000     -49.00000000
       -49.00000000     -49.00000000     -49.00000000     -49.00000000     -49.00000000     -49.00000000     -49.00000000     -49.00000000     -49.00000000     -49.00000000     -49.00000000     -49.00000000     -49.00000000     -49.00000000     -49.00000000     -49.00000000     -49.00000000     -41.54000092     -43.45000076     -45.02000046
       -46.38999939     -47.13000107     -48.13000107     -47.90999985     -49.50000000     -49.50000000     -48.68999863     -49.50000000     -49.50000000     -48.63999939     -47.25999832     -47.68000031     -48.66999817     -48.75000000     -48.06999969     -49.00000000     -49.00000000     -49.00000000     -49.00000000     -49.00000000
       -49.00000000     -49.00000000     -49.00000000     -49.00000000     -49.00000000     -49.00000000     -49.00000000     -49.00000000     -49.00000000     -49.00000000
       -49.00000000     -49.00000000     -49.00000000     -49.00000000     -49.00000000     -49.00000000     -49.00000000     -49.00000000     -49.00000000     -49.00000000     -49.00000000     -49.00000000     -49.00000000     -49.00000000     -49.00000000     -49.00000000     -49.00000000     -49.00000000     -49.00000000     -49.00000000
       -49.00000000     -49.00000000     -49.00000000     -49.00000000     -49.00000000     -49.00000000     -49.00000000     -49.00000000     -49.00000000     -49.00000000     -49.00000000     -49.00000000     -49.00000000     -49.00000000     -49.00000000     -49.00000000     -49.00000000     -49.00000000     -49.00000000     -49.00000000
       -49.00000000     -49.00000000     -49.00000000     -49.00000000     -49.00000000     -49.00000000     -49.00000000     -49.00000000     -49.00000000     -49.00000000     -49.00000000     -49.00000000     -49.00000000     -49.00000000     -49.00000000     -49.00000000     -49.00000000     -49.00000000     -49.00000000     -49.00000000
       -49.00000000     -49.00000000     -49.00000000     -49.00000000     -49.00000000     -49.00000000     -49.00000000     -49.00000000     -49.00000000     -49.00000000     -49.00000000     -49.00000000     -49.00000000     -49.00000000     -49.00000000     -49.00000000     -49.00000000     -49.00000000     -49.00000000     -49.00000000
       -49.00000000     -49.00000000     -49.00000000     -49.00000000     -49.00000000     -49.00000000     -49.00000000     -49.00000000     -49.00000000     -49.00000000     -49.00000000     -49.00000000     -49.00000000     -49.00000000     -49.00000000     -49.00000000     -49.00000000     -49.00000000     -49.00000000     -49.00000000
       -49.00000000     -49.00000000     -49.00000000     -49.00000000     -49.00000000     -49.00000000     -49.00000000     -49.00000000     -49.00000000     -49.00000000     -49.00000000     -49.00000000     -49.00000000     -49.00000000     -49.00000000     -49.00000000     -49.00000000     -49.00000000     -49.00000000     -49.00000000
       -49.00000000     -49.00000000     -49.00000000     -49.00000000     -49.00000000     -49.00000000     -49.00000000     -49.00000000     -49.00000000     -49.00000000     -49.00000000     -49.00000000     -49.00000000     -49.00000000     -49.00000000     -49.00000000     -49.00000000     -49.00000000     -49.00000000     -49.00000000
       -49.00000000     -49.00000000     -49.00000000     -49.00000000     -49.00000000     -49.00000000     -49.00000000     -49.00000000     -49.00000000     -49.00000000     -49.00000000     -49.00000000     -49.00000000     -49.00000000     -49.00000000     -49.00000000     -49.00000000     -49.00000000     -49.00000000     -49.00000000
       -49.00000000     -49.00000000     -49.00000000     -49.00000000     -49.00000000     -49.00000000     -49.00000000     -49.00000000     -49.00000000     -49.00000000     -49.00000000     -49.00000000     -49.00000000     -49.00000000     -49.00000000     -49.00000000     -49.00000000     -49.00000000     -49.00000000     -49.00000000
       -49.00000000     -49.00000000     -49.00000000     -49.00000000     -49.00000000     -49.00000000     -49.00000000     -49.00000000     -49.00000000     -49.00000000     -49.00000000     -49.00000000     -49.00000000     -49.00000000     -49.00000000     -49.00000000     -49.00000000     -49.00000000     -49.00000000     -49.00000000
       -49.00000000     -49.00000000     -49.00000000     -49.00000000     -49.00000000     -49.00000000     -49.00000000     -49.00000000     -49.00000000     -49.00000000     -49.00000000     -49.00000000     -49.00000000     -49.00000000     -49.00000000     -49.00000000     -49.00000000     -41.84999847     -43.13999939     -45.29999924
       -46.40999985     -46.93000031     -46.93000031     -48.15000153     -48.50000000     -49.50000000     -49.50000000     -49.50000000     -49.16999817     -47.47999954     -47.65999985     -47.61999893     -48.77000046     -48.63000107     -47.90999985     -49.00000000     -49.00000000     -49.00000000     -49.00000000     -49.00000000
       -49.00000000     -49.00000000     -49.00000000     -49.00000000     -49.00000000     -49.00000000     -49.00000000     -49.00000000     -49.00000000     -49.00000000
       -49.00000000     -49.00000000     -49.00000000     -49.00000000     -49.00000000     -49.00000000     -49.00000000     -49.00000000     -49.00000000     -49.00000000     -49.00000000     -49.00000000     -49.00000000     -49.00000000     -49.00000000     -49.00000000     -49.00000000     -49.00000000     -49.00000000     -49.00000000
       -49.00000000     -49.00000000     -49.00000000     -49.00000000     -49.00000000     -49.00000000     -49.00000000     -49.00000000     -49.00000000     -49.00000000     -49.00000000     -49.00000000     -49.00000000     -49.00000000     -49.00000000     -49.00000000     -49.00000000     -49.00000000     -49.00000000     -49.00000000
       -49.00000000     -49.00000000     -49.00000000     -49.00000000     -49.00000000     -49.00000000     -49.00000000     -49.00000000     -49.00000000     -49.00000000     -49.00000000     -49.00000000     -49.00000000     -49.00000000     -49.00000000     -49.00000000     -49.00000000     -49.00000000     -49.00000000     -49.00000000
       -49.00000000     -49.00000000     -49.00000000     -49.00000000     -49.00000000     -49.00000000     -49.00000000     -49.00000000     -49.00000000     -49.00000000     -49.00000000     -49.00000000     -49.00000000     -49.00000000     -49.00000000     -49.00000000     -49.00000000     -49.00000000     -49.00000000     -49.00000000
       -49.00000000     -49.00000000     -49.00000000     -49.00000000     -49.00000000     -49.00000000     -49.00000000     -49.00000000     -49.00000000     -49.00000000     -49.00000000     -49.00000000     -49.00000000     -49.00000000     -49.00000000     -49.00000000     -49.00000000     -49.00000000     -49.00000000     -49.00000000
       -49.00000000     -49.00000000     -49.00000000     -49.00000000     -49.00000000     -49.00000000     -49.00000000     -49.00000000     -49.00000000     -49.00000000     -49.00000000     -49.00000000     -49.00000000     -49.00000000     -49.00000000     -49.00000000     -49.00000000     -49.00000000     -49.00000000     -49.00000000
       -49.00000000     -49.00000000     -49.00000000     -49.00000000     -49.00000000     -49.00000000     -49.00000000     -49.00000000     -49.00000000     -49.00000000     -49.00000000     -49.00000000     -49.00000000     -49.00000000     -49.00000000     -49.00000000     -49.00000000     -49.00000000     -49.00000000     -49.00000000
       -49.00000000     -49.00000000     -49.00000000     -49.00000000     -49.00000000     -49.00000000     -49.00000000     -49.00000000     -49.00000000     -49.00000000     -49.00000000     -49.00000000     -49.00000000     -49.00000000     -49.00000000     -49.00000000     -49.00000000     -49.00000000     -49.00000000     -49.00000000
       -49.00000000     -49.00000000     -49.00000000     -49.00000000     -49.00000000     -49.00000000     -49.00000000     -49.00000000     -49.00000000     -49.00000000     -49.00000000     -49.00000000     -49.00000000     -49.00000000     -49.00000000     -49.00000000     -49.00000000     -49.00000000     -49.00000000     -49.00000000
       -49.00000000     -49.00000000     -49.00000000     -49.00000000     -49.00000000     -49.00000000     -49.00000000     -49.00000000     -49.00000000     -49.00000000     -49.00000000     -49.00000000     -49.00000000     -49.00000000     -49.00000000     -49.00000000     -49.00000000     -49.00000000     -49.00000000     -49.00000000
       -49.00000000     -49.00000000     -49.00000000     -49.00000000     -49.00000000     -49.00000000     -49.00000000     -49.00000000     -49.00000000     -49.00000000     -49.00000000     -49.00000000     -49.00000000     -49.00000000     -49.00000000     -49.00000000     -49.00000000     -41.52000046     -43.72000122     -45.18999863
       -46.36999893     -47.50999832     -47.59000015     -48.11000061     -48.99000168     -48.79999924     -48.25000000     -49.50000000     -48.20000076     -48.31999969     -49.50000000     -49.50000000     -48.75000000     -48.84999847     -47.88000107     -49.00000000     -49.00000000     -49.00000000     -49.00000000     -49.00000000
       -49.00000000     -49.00000000     -49.00000000     -49.00000000     -49.00000000     -49.00000000     -49.00000000     -49.00000000     -49.00000000     -49.00000000
       -49.00000000     -49.00000000     -49.00000000     -49.00000000     -49.00000000     -49.00000000     -49.00000000     -49.00000000     -49.00000000     -49.00000000     -49.00000000     -49.00000000     -49.00000000     -49.00000000     -49.00000000     -49.00000000     -49.00000000     -49.00000000     -49.00000000     -49.00000000
       -49.00000000     -49.00000000     -49.00000000     -49.00000000     -49.00000000     -49.00000000     -49.00000000     -49.00000000     -49.00000000     -49.00000000     -49.00000000     -49.00000000     -49.00000000     -49.00000000     -49.00000000     -49.00000000     -49.00000000     -49.00000000     -49.00000000     -49.00000000
       -49.00000000     -49.00000000     -49.00000000     -49.00000000     -49.00000000     -49.00000000     -49.00000000     -49.00000000     -49.00000000     -49.00000000     -49.00000000     -49.00000000     -49.00000000     -49.00000000     -49.00000000     -49.00000000     -49.00000000     -49.00000000     -49.00000000     -49.00000000
       -49.00000000     -49.00000000     -49.00000000     -49.00000000     -49.00000000     -49.00000000     -49.00000000     -49.00000000     -49.00000000     -49.00000000     -49.00000000     -49.00000000     -49.00000000     -49.00000000     -49.00000000     -49.00000000     -49.00000000     -49.00000000     -49.00000000     -49.00000000
       -49.00000000     -49.00000000     -49.00000000     -49.00000000     -49.00000000     -49.00000000     -49.00000000     -49.00000000     -49.00000000     -49.00000000     -49.00000000     -49.00000000     -49.00000000     -49.00000000     -49.00000000     -49.00000000     -49.00000000     -49.00000000     -49.00000000     -49.00000000
       -49.00000000     -49.00000000     -49.00000000     -49.00000000     -49.00000000     -49.00000000     -49.00000000     -49.00000000     -49.00000000     -49.00000000     -49.00000000     -49.00000000     -49.00000000     -49.00000000     -49.00000000     -49.00000000     -49.00000000     -49.00000000     -49.00000000     -49.00000000
       -49.00000000     -49.00000000     -49.00000000     -49.00000000     -49.00000000     -49.00000000     -49.00000000     -49.00000000     -49.00000000     -49.00000000     -49.00000000     -49.00000000     -49.00000000     -49.00000000     -49.00000000     -49.00000000     -49.00000000     -49.00000000     -49.00000000     -49.00000000
       -49.00000000     -49.00000000     -49.00000000     -49.00000000     -49.00000000     -49.00000000     -49.00000000     -49.00000000     -49.00000000     -49.00000000     -49.00000000     -49.00000000     -49.00000000     -49.00000000     -49.00000000     -49.00000000     -49.00000000     -49.00000000     -49.00000000     -49.00000000
       -49.00000000     -49.00000000     -49.00000000     -49.00000000     -49.00000000     -49.00000000     -49.00000000     -49.00000000     -49.00000000     -49.00000000     -49.00000000     -49.00000000     -49.00000000     -49.00000000     -49.00000000     -49.00000000     -49.00000000     -49.00000000     -49.00000000     -49.00000000
       -49.00000000     -49.00000000     -49.00000000     -49.00000000     -49.00000000     -49.00000000     -49.00000000     -49.00000000     -49.00000000     -49.00000000     -49.00000000     -49.00000000     -49.00000000     -49.00000000     -49.00000000     -49.00000000     -49.00000000     -49.00000000     -49.00000000     -49.00000000
       -49.00000000     -49.00000000     -49.00000000     -49.00000000     -49.00000000     -49.00000000     -49.00000000     -49.00000000     -49.00000000     -49.00000000     -49.00000000     -49.00000000     -49.00000000     -49.00000000     -49.00000000     -49.00000000     -49.00000000     -40.97999954     -43.02000046     -44.95000076
       -46.29999924     -47.70999908     -48.18999863     -47.83000183     -47.52999878     -47.88999939     -47.81000137     -48.27000046     -47.02000046     -46.84999847     -47.31000137     -46.58000183     -49.50000000     -49.50000000     -47.77999878     -49.00000000     -49.00000000     -49.00000000     -49.00000000     -49.00000000
       -49.00000000     -49.00000000     -49.00000000     -49.00000000     -49.00000000     -49.00000000     -49.00000000     -49.00000000     -49.00000000     -49.00000000
       -49.00000000     -49.00000000     -49.00000000     -49.00000000     -49.00000000     -49.00000000     -49.00000000     -49.00000000     -49.00000000     -49.00000000     -49.00000000     -49.00000000     -49.00000000     -49.00000000     -49.00000000     -49.00000000     -49.00000000     -49.00000000     -49.00000000     -49.00000000
       -49.00000000     -49.00000000     -49.00000000     -49.00000000     -49.00000000     -49.00000000     -49.00000000     -49.00000000     -49.00000000     -49.00000000     -49.00000000     -49.00000000     -49.00000000     -49.00000000     -49.00000000     -49.00000000     -49.00000000     -49.00000000     -49.00000000     -49.00000000
       -49.00000000     -49.00000000     -49.00000000     -49.00000000     -49.00000000     -49.00000000     -49.00000000     -49.00000000     -49.00000000     -49.00000000     -49.00000000     -49.00000000     -49.00000000     -49.00000000     -49.00000000     -49.00000000     -49.00000000     -49.00000000     -49.00000000     -49.00000000
       -49.00000000     -49.00000000     -49.00000000     -49.00000000     -49.00000000     -49.00000000     -49.00000000     -49.00000000     -49.00000000     -49.00000000     -49.00000000     -49.00000000     -49.00000000     -49.00000000     -49.00000000     -49.00000000     -49.00000000     -49.00000000     -49.00000000     -49.00000000
       -49.00000000     -49.00000000     -49.00000000     -49.00000000     -49.00000000     -49.00000000     -49.00000000     -49.00000000     -49.00000000     -49.00000000     -49.00000000     -49.00000000     -49.00000000     -49.00000000     -49.00000000     -49.00000000     -49.00000000     -49.00000000     -49.00000000     -49.00000000
       -49.00000000     -49.00000000     -49.00000000     -49.00000000     -49.00000000     -49.00000000     -49.00000000     -49.00000000     -49.00000000     -49.00000000     -49.00000000     -49.00000000     -49.00000000     -49.00000000     -49.00000000     -49.00000000     -49.00000000     -49.00000000     -49.00000000     -49.00000000
       -49.00000000     -49.00000000     -49.00000000     -49.00000000     -49.00000000     -49.00000000     -49.00000000     -49.00000000     -49.00000000     -49.00000000     -49.00000000     -49.00000000     -49.00000000     -49.00000000     -49.00000000     -49.00000000     -49.00000000     -49.00000000     -49.00000000     -49.00000000
       -49.00000000     -49.00000000     -49.00000000     -49.00000000     -49.00000000     -49.00000000     -49.00000000     -49.00000000     -49.00000000     -49.00000000     -49.00000000     -49.00000000     -49.00000000     -49.00000000     -49.00000000     -49.00000000     -49.00000000     -49.00000000     -49.00000000     -49.00000000
       -49.00000000     -49.00000000     -49.00000000     -49.00000000     -49.00000000     -49.00000000     -49.00000000     -49.00000000     -49.00000000     -49.00000000     -49.00000000     -49.00000000     -49.00000000     -49.00000000     -49.00000000     -49.00000000     -49.00000000     -49.00000000     -49.00000000     -49.00000000
       -49.00000000     -49.00000000     -49.00000000     -49.00000000     -49.00000000     -49.00000000     -49.00000000     -49.00000000     -49.00000000     -49.00000000     -49.00000000     -49.00000000     -49.00000000     -49.00000000     -49.00000000     -49.00000000     -49.00000000     -49.00000000     -49.00000000     -49.00000000
       -49.00000000     -49.00000000     -49.00000000     -49.00000000     -49.00000000     -49.00000000     -49.00000000     -49.00000000     -49.00000000     -49.00000000     -49.00000000     -49.00000000     -49.00000000     -49.00000000     -49.00000000     -49.00000000     -49.00000000     -41.34999847     -43.54000092     -45.34999847
       -47.70000076     -48.02999878     -47.79000092     -45.34000015     -42.36999893     -39.47999954     -39.77999878     -38.86000061     -28.22999954     -25.79999924     -39.36000061     -45.68999863     -46.86000061     -49.50000000     -47.75000000     -49.00000000     -49.00000000     -49.00000000     -49.00000000     -49.00000000
       -49.00000000     -49.00000000     -49.00000000     -49.00000000     -49.00000000     -49.00000000     -49.00000000     -49.00000000     -49.00000000     -49.00000000
       -49.00000000     -49.00000000     -49.00000000     -49.00000000     -49.00000000     -49.00000000     -49.00000000     -49.00000000     -49.00000000     -49.00000000     -49.00000000     -49.00000000     -49.00000000     -49.00000000     -49.00000000     -49.00000000     -49.00000000     -49.00000000     -49.00000000     -49.00000000
       -49.00000000     -49.00000000     -49.00000000     -49.00000000     -49.00000000     -49.00000000     -49.00000000     -49.00000000     -49.00000000     -49.00000000     -49.00000000     -49.00000000     -49.00000000     -49.00000000     -49.00000000     -49.00000000     -49.00000000     -49.00000000     -49.00000000     -49.00000000
       -49.00000000     -49.00000000     -49.00000000     -49.00000000     -49.00000000     -49.00000000     -49.00000000     -49.00000000     -49.00000000     -49.00000000     -49.00000000     -49.00000000     -49.00000000     -49.00000000     -49.00000000     -49.00000000     -49.00000000     -49.00000000     -49.00000000     -49.00000000
       -49.00000000     -49.00000000     -49.00000000     -49.00000000     -49.00000000     -49.00000000     -49.00000000     -49.00000000     -49.00000000     -49.00000000     -49.00000000     -49.00000000     -49.00000000     -49.00000000     -49.00000000     -49.00000000     -49.00000000     -49.00000000     -49.00000000     -49.00000000
       -49.00000000     -49.00000000     -49.00000000     -49.00000000     -49.00000000     -49.00000000     -49.00000000     -49.00000000     -49.00000000     -49.00000000     -49.00000000     -49.00000000     -49.00000000     -49.00000000     -49.00000000     -49.00000000     -49.00000000     -49.00000000     -49.00000000     -49.00000000
       -49.00000000     -49.00000000     -49.00000000     -49.00000000     -49.00000000     -49.00000000     -49.00000000     -49.00000000     -49.00000000     -49.00000000     -49.00000000     -49.00000000     -49.00000000     -49.00000000     -49.00000000     -49.00000000     -49.00000000     -49.00000000     -49.00000000     -49.00000000
       -49.00000000     -49.00000000     -49.00000000     -49.00000000     -49.00000000     -49.00000000     -49.00000000     -49.00000000     -49.00000000     -49.00000000     -49.00000000     -49.00000000     -49.00000000     -49.00000000     -49.00000000     -49.00000000     -49.00000000     -49.00000000     -49.00000000     -49.00000000
       -49.00000000     -49.00000000     -49.00000000     -49.00000000     -49.00000000     -49.00000000     -49.00000000     -49.00000000     -49.00000000     -49.00000000     -49.00000000     -49.00000000     -49.00000000     -49.00000000     -49.00000000     -49.00000000     -49.00000000     -49.00000000     -49.00000000     -49.00000000
       -49.00000000     -49.00000000     -49.00000000     -49.00000000     -49.00000000     -49.00000000     -49.00000000     -49.00000000     -49.00000000     -49.00000000     -49.00000000     -49.00000000     -49.00000000     -49.00000000     -49.00000000     -49.00000000     -49.00000000     -49.00000000     -49.00000000     -49.00000000
       -49.00000000     -49.00000000     -49.00000000     -49.00000000     -49.00000000     -49.00000000     -49.00000000     -49.00000000     -49.00000000     -49.00000000     -49.00000000     -49.00000000     -49.00000000     -49.00000000     -49.00000000     -49.00000000     -49.00000000     -49.00000000     -49.00000000     -49.00000000
       -49.00000000     -49.00000000     -49.00000000     -49.00000000     -49.00000000     -49.00000000     -49.00000000     -49.00000000     -49.00000000     -49.00000000     -49.00000000     -49.00000000     -49.00000000     -49.00000000     -49.00000000     -49.00000000     -49.00000000     -42.45000076     -44.09999847     -45.77999878
       -47.79999924     -48.49000168     -43.68000031     -41.48999786     -23.94000053     -11.25999832     -10.79999924      -8.63999939      29.15000153      -4.79999924      -1.91999817       0.95000076     -13.90999985     -37.72000122     -48.43000031     -49.00000000     -49.00000000     -49.00000000     -49.00000000     -49.00000000