BEGIN options
  XORIGIN  6.60022500E+05
  YORIGIN  6.14997750E+06
END options

BEGIN dimensions
  NLAY  1
  NROW  250
  NCOL  250
END dimensions

BEGIN griddata
  delr
    INTERNAL  FACTOR  1.0
       184.00000000     184.00000000     184.00000000     184.00000000     184.00000000     184.00000000     184.00000000     184.00000000     184.00000000     184.00000000     184.00000000     184.00000000     184.00000000     184.00000000     184.00000000     184.00000000     184.00000000     184.00000000     184.00000000     184.00000000
       184.00000000     184.00000000     184.00000000     184.00000000     184.00000000     184.00000000     184.00000000     184.00000000     184.00000000     184.00000000     184.00000000     184.00000000     184.00000000     184.00000000     184.00000000     184.00000000     184.00000000     184.00000000     184.00000000     184.00000000
       184.00000000     184.00000000     184.00000000     184.00000000     184.00000000     184.00000000     184.00000000     184.00000000     184.00000000     184.00000000     184.00000000     184.00000000     184.00000000     184.00000000     184.00000000     184.00000000     184.00000000     184.00000000     184.00000000     184.00000000
       184.00000000     184.00000000     184.00000000     184.00000000     184.00000000     184.00000000     184.00000000     184.00000000     184.00000000     184.00000000     184.00000000     184.00000000     184.00000000     184.00000000     184.00000000     184.00000000     184.00000000     184.00000000     184.00000000     184.00000000
       184.00000000     184.00000000     184.00000000     184.00000000     184.00000000     184.00000000     184.00000000     184.00000000     184.00000000     184.00000000     184.00000000     184.00000000     184.00000000     184.00000000     184.00000000     184.00000000     184.00000000     184.00000000     184.00000000     184.00000000
       184.00000000     184.00000000     184.00000000     184.00000000     184.00000000     184.00000000     184.00000000     184.00000000     184.00000000     184.00000000     184.00000000     184.00000000     184.00000000     184.00000000     184.00000000     184.00000000     184.00000000     184.00000000     184.00000000     184.00000000
       184.00000000     184.00000000     184.00000000     184.00000000     184.00000000     184.00000000     184.00000000     184.00000000     184.00000000     184.00000000     184.00000000     184.00000000     184.00000000     184.00000000     184.00000000     184.00000000     184.00000000     184.00000000     184.00000000     184.00000000
       184.00000000     184.00000000     184.00000000     184.00000000     184.00000000     184.00000000     184.00000000     184.00000000     184.00000000     184.00000000     184.00000000     184.00000000     184.00000000     184.00000000     184.00000000     184.00000000     184.00000000     184.00000000     184.00000000     184.00000000
       184.00000000     184.00000000     184.00000000     184.00000000     184.00000000     184.00000000     184.00000000     184.00000000     184.00000000     184.00000000     184.00000000     184.00000000     184.00000000     184.00000000     184.00000000     184.00000000     184.00000000     184.00000000     184.00000000     184.00000000
       184.00000000     184.00000000     184.00000000     184.00000000     184.00000000     184.00000000     184.00000000     184.00000000     184.00000000     184.00000000     184.00000000     184.00000000     184.00000000     184.00000000     184.00000000     184.00000000     184.00000000     184.00000000     184.00000000     184.00000000
       184.00000000     184.00000000     184.00000000     184.00000000     184.00000000     184.00000000     184.00000000     184.00000000     184.00000000     184.00000000     184.00000000     184.00000000     184.00000000     184.00000000     184.00000000     184.00000000     184.00000000     184.00000000     184.00000000     184.00000000
       184.00000000     184.00000000     184.00000000     184.00000000     184.00000000     184.00000000     184.00000000     184.00000000     184.00000000     184.00000000     184.00000000     184.00000000     184.00000000     184.00000000     184.00000000     184.00000000     184.00000000     184.00000000     184.00000000     184.00000000
       184.00000000     184.00000000     184.00000000     184.00000000     184.00000000     184.00000000     184.00000000     184.00000000     184.00000000     184.00000000
  delc
    INTERNAL  FACTOR  1.0
       220.00000000     220.00000000     220.00000000     220.00000000     220.00000000     220.00000000     220.00000000     220.00000000     220.00000000     220.00000000     220.00000000     220.00000000     220.00000000     220.00000000     220.00000000     220.00000000     220.00000000     220.00000000     220.00000000     220.00000000
       220.00000000     220.00000000     220.00000000     220.00000000     220.00000000     220.00000000     220.00000000     220.00000000     220.00000000     220.00000000     220.00000000     220.00000000     220.00000000     220.00000000     220.00000000     220.00000000     220.00000000     220.00000000     220.00000000     220.00000000
       220.00000000     220.00000000     220.00000000     220.00000000     220.00000000     220.00000000     220.00000000     220.00000000     220.00000000     220.00000000     220.00000000     220.00000000     220.00000000     220.00000000     220.00000000     220.00000000     220.00000000     220.00000000     220.00000000     220.00000000
       220.00000000     220.00000000     220.00000000     220.00000000     220.00000000     220.00000000     220.00000000     220.00000000     220.00000000     220.00000000     220.00000000     220.00000000     220.00000000     220.00000000     220.00000000     220.00000000     220.00000000     220.00000000     220.00000000     220.00000000
       220.00000000     220.00000000     220.00000000     220.00000000     220.00000000     220.00000000     220.00000000     220.00000000     220.00000000     220.00000000     220.00000000     220.00000000     220.00000000     220.00000000     220.00000000     220.00000000     220.00000000     220.00000000     220.00000000     220.00000000
       220.00000000     220.00000000     220.00000000     220.00000000     220.00000000     220.00000000     220.00000000     220.00000000     220.00000000     220.00000000     220.00000000     220.00000000     220.00000000     220.00000000     220.00000000     220.00000000     220.00000000     220.00000000     220.00000000     220.00000000
       220.00000000     220.00000000     220.00000000     220.00000000     220.00000000     220.00000000     220.00000000     220.00000000     220.00000000     220.00000000     220.00000000     220.00000000     220.00000000     220.00000000     220.00000000     220.00000000     220.00000000     220.00000000     220.00000000     220.00000000
       220.00000000     220.00000000     220.00000000     220.00000000     220.00000000     220.00000000     220.00000000     220.00000000     220.00000000     220.00000000     220.00000000     220.00000000     220.00000000     220.00000000     220.00000000     220.00000000     220.00000000     220.00000000     220.00000000     220.00000000
       220.00000000     220.00000000     220.00000000     220.00000000     220.00000000     220.00000000     220.00000000     220.00000000     220.00000000     220.00000000     220.00000000     220.00000000     220.00000000     220.00000000     220.00000000     220.00000000     220.00000000     220.00000000     220.00000000     220.00000000
       220.00000000     220.00000000     220.00000000     220.00000000     220.00000000     220.00000000     220.00000000     220.00000000     220.00000000     220.00000000     220.00000000     220.00000000     220.00000000     220.00000000     220.00000000     220.00000000     220.00000000     220.00000000     220.00000000     220.00000000
       220.00000000     220.00000000     220.00000000     220.00000000     220.00000000     220.00000000     220.00000000     220.00000000     220.00000000     220.00000000     220.00000000     220.00000000     220.00000000     220.00000000     220.00000000     220.00000000     220.00000000     220.00000000     220.00000000     220.00000000
       220.00000000     220.00000000     220.00000000     220.00000000     220.00000000     220.00000000     220.00000000     220.00000000     220.00000000     220.00000000     220.00000000     220.00000000     220.00000000     220.00000000     220.00000000     220.00000000     220.00000000     220.00000000     220.00000000     220.00000000
       220.00000000     220.00000000     220.00000000     220.00000000     220.00000000     220.00000000     220.00000000     220.00000000     220.00000000     220.00000000
  top
    INTERNAL  FACTOR  1.0
         0.00000000       0.00000000       0.00000000       0.00000000       0.00000000       0.00000000       0.00000000       0.00000000       0.00000000       0.00000000       0.00000000       0.00000000       0.00000000       0.00000000       0.00000000       0.00000000       0.00000000       0.00000000       0.00000000       0.00000000
         0.00000000       0.00000000       0.00000000       0.00000000       0.00000000       0.00000000       0.00000000       0.00000000       0.00000000       0.00000000       0.00000000       0.00000000       0.00000000       0.00000000       0.00000000       0.00000000       0.00000000       0.00000000       0.00000000       0.00000000
         0.00000000       0.00000000       0.00000000       0.00000000       0.00000000       0.00000000       0.00000000       0.00000000       0.00000000       0.00000000       0.00000000       0.00000000       0.00000000       0.00000000       0.00000000       0.00000000       0.00000000       0.00000000       0.00000000       0.00000000
         0.00000000       0.00000000       0.00000000       0.00000000       0.00000000       0.00000000       0.00000000       0.00000000       0.00000000       0.00000000       0.00000000       0.00000000       0.00000000       0.00000000       0.00000000       0.00000000       0.00000000       0.00000000       0.00000000       0.00000000
         0.00000000       0.00000000       0.00000000       0.00000000       0.00000000       0.00000000       0.00000000       0.00000000       0.00000000       0.00000000       0.00000000       0.00000000       0.00000000       0.00000000       0.00000000       0.00000000       0.00000000       0.00000000       0.00000000       0.00000000
         0.00000000       0.00000000       0.00000000       0.00000000       0.00000000       0.00000000       0.00000000       0.00000000       0.00000000       0.00000000       0.00000000       0.00000000       0.00000000       0.00000000       0.00000000       0.00000000       0.00000000       0.00000000       0.00000000       0.00000000
         0.00000000       0.00000000       0.00000000       0.00000000       0.00000000       0.00000000       0.00000000       0.00000000       0.00000000       0.00000000       0.00000000       0.00000000       0.00000000       0.00000000       0.00000000       0.00000000       0.00000000       0.00000000       0.00000000       0.00000000
         0.00000000       0.00000000       0.00000000       0.00000000       0.00000000       0.00000000       0.00000000       0.00000000       0.00000000       0.00000000       0.00000000       0.00000000       0.00000000       0.00000000       0.00000000       0.00000000       0.00000000       0.00000000       0.00000000       0.00000000
         0.00000000       0.00000000       0.00000000       0.00000000       0.00000000       0.00000000       0.00000000       0.00000000       0.00000000       0.00000000       0.00000000       0.00000000       0.00000000       0.00000000       0.00000000       0.00000000       0.00000000       0.00000000       0.00000000       0.00000000
         0.00000000       0.00000000       0.00000000       0.00000000       0.00000000       0.00000000       0.00000000       0.00000000       0.00000000       0.00000000       0.00000000       0.00000000       0.00000000       0.00000000       0.00000000       0.00000000       0.00000000       0.00000000       0.00000000       0.00000000
         0.00000000       0.00000000       0.00000000       0.00000000       0.00000000       0.00000000       0.00000000       0.00000000       0.00000000       0.00000000       0.00000000       0.00000000       0.00000000       0.00000000       0.00000000       0.00000000       0.00000000       6.75000000       4.90000010       3.66000009
         2.29999995       1.44000006       0.51999998      -0.50000000      -0.50000000      -0.50000000       0.46000001      -0.50000000       0.12000000       0.79000002       1.15999997       1.28999996       0.54000002       1.21000004       0.81000000       0.00000000       0.00000000       0.00000000       0.00000000       0.00000000
         0.00000000       0.00000000       0.00000000       0.00000000       0.00000000       0.00000000       0.00000000       0.00000000       0.00000000       0.00000000
         0.00000000       0.00000000       0.00000000       0.00000000       0.00000000       0.00000000       0.00000000       0.00000000       0.00000000       0.00000000       0.00000000       0.00000000       0.00000000       0.00000000       0.00000000       0.00000000       0.00000000       0.00000000       0.00000000       0.00000000
         0.00000000       0.00000000       0.00000000       0.00000000       0.00000000       0.00000000       0.00000000       0.00000000       0.00000000       0.00000000       0.00000000       0.00000000       0.00000000       0.00000000       0.00000000       0.00000000       0.00000000       0.00000000       0.00000000       0.00000000
         0.00000000       0.00000000       0.00000000       0.00000000       0.00000000       0.00000000       0.00000000       0.00000000       0.00000000       0.00000000       0.00000000       0.00000000       0.00000000       0.00000000       0.00000000       0.00000000       0.00000000       0.00000000       0.00000000       0.00000000
         0.00000000       0.00000000       0.00000000       0.00000000       0.00000000       0.00000000       0.00000000       0.00000000       0.00000000       0.00000000       0.00000000       0.00000000       0.00000000       0.00000000       0.00000000       0.00000000       0.00000000       0.00000000       0.00000000       0.00000000
         0.00000000       0.00000000       0.00000000       0.00000000       0.00000000       0.00000000       0.00000000       0.00000000       0.00000000       0.00000000       0.00000000       0.00000000       0.00000000       0.00000000       0.00000000       0.00000000       0.00000000       0.00000000       0.00000000       0.00000000
         0.00000000       0.00000000       0.00000000       0.00000000       0.00000000       0.00000000       0.00000000       0.00000000       0.00000000       0.00000000       0.00000000       0.00000000       0.00000000       0.00000000       0.00000000       0.00000000       0.00000000       0.00000000       0.00000000       0.00000000
         0.00000000       0.00000000       0.00000000       0.00000000       0.00000000       0.00000000       0.00000000       0.00000000       0.00000000       0.00000000       0.00000000       0.00000000       0.00000000       0.00000000       0.00000000       0.00000000       0.00000000       0.00000000       0.00000000       0.00000000
         0.00000000       0.00000000       0.00000000       0.00000000       0.00000000       0.00000000       0.00000000       0.00000000       0.00000000       0.00000000       0.00000000       0.00000000       0.00000000       0.00000000       0.00000000       0.00000000       0.00000000       0.00000000       0.00000000       0.00000000
         0.00000000       0.00000000       0.00000000       0.00000000       0.00000000       0.00000000       0.00000000       0.00000000       0.00000000       0.00000000       0.00000000       0.00000000       0.00000000       0.00000000       0.00000000       0.00000000       0.00000000       0.00000000       0.00000000       0.00000000
         0.00000000       0.00000000       0.00000000       0.00000000       0.00000000       0.00000000       0.00000000       0.00000000       0.00000000       0.00000000       0.00000000       0.00000000       0.00000000       0.00000000       0.00000000       0.00000000       0.00000000       0.00000000       0.00000000       0.00000000
         0.00000000       0.00000000       0.00000000       0.00000000       0.00000000       0.00000000       0.00000000       0.00000000       0.00000000       0.00000000       0.00000000       0.00000000       0.00000000       0.00000000       0.00000000       0.00000000       0.00000000       7.46000004       5.55000019       3.98000002
         2.60999990       1.87000000       0.87000000       1.09000003      -0.50000000      -0.50000000       0.31000000      -0.50000000      -0.50000000       0.36000001       1.74000001       1.32000005       0.33000001       0.25000000       0.93000001       0.00000000       0.00000000       0.00000000       0.00000000       0.00000000
         0.00000000       0.00000000       0.00000000       0.00000000       0.00000000       0.00000000       0.00000000       0.00000000       0.00000000       0.00000000
         0.00000000       0.00000000       0.00000000       0.00000000       0.00000000       0.00000000       0.00000000       0.00000000       0.00000000       0.00000000       0.00000000       0.00000000       0.00000000       0.00000000       0.00000000       0.00000000       0.00000000       0.00000000       0.00000000       0.00000000
         0.00000000       0.00000000       0.00000000       0.00000000       0.00000000       0.00000000       0.00000000       0.00000000       0.00000000       0.00000000       0.00000000       0.00000000       0.00000000       0.00000000       0.00000000       0.00000000       0.00000000       0.00000000       0.00000000       0.00000000
         0.00000000       0.00000000       0.00000000       0.00000000       0.00000000       0.00000000       0.00000000       0.00000000       0.00000000       0.00000000       0.00000000       0.00000000       0.00000000       0.00000000       0.00000000       0.00000000       0.00000000       0.00000000       0.00000000       0.00000000
         0.00000000       0.00000000       0.00000000       0.00000000       0.00000000       0.00000000       0.00000000       0.00000000       0.00000000       0.00000000       0.00000000       0.00000000       0.00000000       0.00000000       0.00000000       0.00000000       0.00000000       0.00000000       0.00000000       0.00000000
         0.00000000       0.00000000       0.00000000       0.00000000       0.00000000       0.00000000       0.00000000       0.00000000       0.00000000       0.00000000       0.00000000       0.00000000       0.00000000       0.00000000       0.00000000       0.00000000       0.00000000       0.00000000       0.00000000       0.00000000
         0.00000000       0.00000000       0.00000000       0.00000000       0.00000000       0.00000000       0.00000000       0.00000000       0.00000000       0.00000000       0.00000000       0.00000000       0.00000000       0.00000000       0.00000000       0.00000000       0.00000000       0.00000000       0.00000000       0.00000000
         0.00000000       0.00000000       0.00000000       0.00000000       0.00000000       0.00000000       0.00000000       0.00000000       0.00000000       0.00000000       0.00000000       0.00000000       0.00000000       0.00000000       0.00000000       0.00000000       0.00000000       0.00000000       0.00000000       0.00000000
         0.00000000       0.00000000       0.00000000       0.00000000       0.00000000       0.00000000       0.00000000       0.00000000       0.00000000       0.00000000       0.00000000       0.00000000       0.00000000       0.00000000       0.00000000       0.00000000       0.00000000       0.00000000       0.00000000       0.00000000
         0.00000000       0.00000000       0.00000000       0.00000000       0.00000000       0.00000000       0.00000000       0.00000000       0.00000000       0.00000000       0.00000000       0.00000000       0.00000000       0.00000000       0.00000000       0.00000000       0.00000000       0.00000000       0.00000000       0.00000000
         0.00000000       0.00000000       0.00000000       0.00000000       0.00000000       0.00000000       0.00000000       0.00000000       0.00000000       0.00000000       0.00000000       0.00000000       0.00000000       0.00000000       0.00000000       0.00000000       0.00000000       0.00000000       0.00000000       0.00000000
         0.00000000       0.00000000       0.00000000       0.00000000       0.00000000       0.00000000       0.00000000       0.00000000       0.00000000       0.00000000       0.00000000       0.00000000       0.00000000       0.00000000       0.00000000       0.00000000       0.00000000       7.15000010       5.86000013       3.70000005
         2.58999991       2.06999993       2.06999993       0.85000002       0.50000000      -0.50000000      -0.50000000      -0.50000000      -0.17000000       1.51999998       1.34000003       1.38000000       0.23000000       0.37000000       1.09000003       0.00000000       0.00000000       0.00000000       0.00000000       0.00000000
         0.00000000       0.00000000       0.00000000       0.00000000       0.00000000       0.00000000       0.00000000       0.00000000       0.00000000       0.00000000
         0.00000000       0.00000000       0.00000000       0.00000000       0.00000000       0.00000000       0.00000000       0.00000000       0.00000000       0.00000000       0.00000000       0.00000000       0.00000000       0.00000000       0.00000000       0.00000000       0.00000000       0.00000000       0.00000000       0.00000000
         0.00000000       0.00000000       0.00000000       0.00000000       0.00000000       0.00000000       0.00000000       0.00000000       0.00000000       0.00000000       0.00000000       0.00000000       0.00000000       0.00000000       0.00000000       0.00000000       0.00000000       0.00000000       0.00000000       0.00000000
         0.00000000       0.00000000       0.00000000       0.00000000       0.00000000       0.00000000       0.00000000       0.00000000       0.00000000       0.00000000       0.00000000       0.00000000       0.00000000       0.00000000       0.00000000       0.00000000       0.00000000       0.00000000       0.00000000       0.00000000
         0.00000000       0.00000000       0.00000000       0.00000000       0.00000000       0.00000000       0.00000000       0.00000000       0.00000000       0.00000000       0.00000000       0.00000000       0.00000000       0.00000000       0.00000000       0.00000000       0.00000000       0.00000000       0.00000000       0.00000000
         0.00000000       0.00000000       0.00000000       0.00000000       0.00000000       0.00000000       0.00000000       0.00000000       0.00000000       0.00000000       0.00000000       0.00000000       0.00000000       0.00000000       0.00000000       0.00000000       0.00000000       0.00000000       0.00000000       0.00000000
         0.00000000       0.00000000       0.00000000       0.00000000       0.00000000       0.00000000       0.00000000       0.00000000       0.00000000       0.00000000       0.00000000       0.00000000       0.00000000       0.00000000       0.00000000       0.00000000       0.00000000       0.00000000       0.00000000       0.00000000
         0.00000000       0.00000000       0.00000000       0.00000000       0.00000000       0.00000000       0.00000000       0.00000000       0.00000000       0.00000000       0.00000000       0.00000000       0.00000000       0.00000000       0.00000000       0.00000000       0.00000000       0.00000000       0.00000000       0.00000000
         0.00000000       0.00000000       0.00000000       0.00000000       0.00000000       0.00000000       0.00000000       0.00000000       0.00000000       0.00000000       0.00000000       0.00000000       0.00000000       0.00000000       0.00000000       0.00000000       0.00000000       0.00000000       0.00000000       0.00000000
         0.00000000       0.00000000       0.00000000       0.00000000       0.00000000       0.00000000       0.00000000       0.00000000       0.00000000       0.00000000       0.00000000       0.00000000       0.00000000       0.00000000       0.00000000       0.00000000       0.00000000       0.00000000       0.00000000       0.00000000
         0.00000000       0.00000000       0.00000000       0.00000000       0.00000000       0.00000000       0.00000000       0.00000000       0.00000000       0.00000000       0.00000000       0.00000000       0.00000000       0.00000000       0.00000000       0.00000000       0.00000000       0.00000000       0.00000000       0.00000000
         0.00000000       0.00000000       0.00000000       0.00000000       0.00000000       0.00000000       0.00000000       0.00000000       0.00000000       0.00000000       0.00000000       0.00000000       0.00000000       0.00000000       0.00000000       0.00000000       0.00000000       7.48000002       5.28000021       3.80999994
         2.63000011       1.49000001       1.40999997       0.88999999       0.01000000       0.20000000       0.75000000      -0.50000000       0.80000001       0.68000001      -0.50000000      -0.50000000       0.25000000       0.15000001       1.12000000       0.00000000       0.00000000       0.00000000       0.00000000       0.00000000
         0.00000000       0.00000000       0.00000000       0.00000000       0.00000000       0.00000000       0.00000000       0.00000000       0.00000000       0.00000000
         0.00000000       0.00000000       0.00000000       0.00000000       0.00000000       0.00000000       0.00000000       0.00000000       0.00000000       0.00000000       0.00000000       0.00000000       0.00000000       0.00000000       0.00000000       0.00000000       0.00000000       0.00000000       0.00000000       0.00000000
         0.00000000       0.00000000       0.00000000       0.00000000       0.00000000       0.00000000       0.00000000       0.00000000       0.00000000       0.00000000       0.00000000       0.00000000       0.00000000       0.00000000       0.00000000       0.00000000       0.00000000       0.00000000       0.00000000       0.00000000
         0.00000000       0.00000000       0.00000000       0.00000000       0.00000000       0.00000000       0.00000000       0.00000000       0.00000000       0.00000000       0.00000000       0.00000000       0.00000000       0.00000000       0.00000000       0.00000000       0.00000000       0.00000000       0.00000000       0.00000000
         0.00000000       0.00000000       0.00000000       0.00000000       0.00000000       0.00000000       0.00000000       0.00000000       0.00000000       0.00000000       0.00000000       0.00000000       0.00000000       0.00000000       0.00000000       0.00000000       0.00000000       0.00000000       0.00000000       0.00000000
         0.00000000       0.00000000       0.00000000       0.00000000       0.00000000       0.00000000       0.00000000       0.00000000       0.00000000       0.00000000       0.00000000       0.00000000       0.00000000       0.00000000       0.00000000       0.00000000       0.00000000       0.00000000       0.00000000       0.00000000
         0.00000000       0.00000000       0.00000000       0.00000000       0.00000000       0.00000000       0.00000000       0.00000000       0.00000000       0.00000000       0.00000000       0.00000000       0.00000000       0.00000000       0.00000000       0.00000000       0.00000000       0.00000000       0.00000000       0.00000000
         0.00000000       0.00000000       0.00000000       0.00000000       0.00000000       0.00000000       0.00000000       0.00000000       0.00000000       0.00000000       0.00000000       0.00000000       0.00000000       0.00000000       0.00000000       0.00000000       0.00000000       0.00000000       0.00000000       0.00000000
         0.00000000       0.00000000       0.00000000       0.00000000       0.00000000       0.00000000       0.00000000       0.00000000       0.00000000       0.00000000       0.00000000       0.00000000       0.00000000       0.00000000       0.00000000       0.00000000       0.00000000       0.00000000       0.00000000       0.00000000
         0.00000000       0.00000000       0.00000000       0.00000000       0.00000000       0.00000000       0.00000000       0.00000000       0.00000000       0.00000000       0.00000000       0.00000000       0.00000000       0.00000000       0.00000000       0.00000000       0.00000000       0.00000000       0.00000000       0.00000000
         0.00000000       0.00000000       0.00000000       0.00000000       0.00000000       0.00000000       0.00000000       0.00000000       0.00000000       0.00000000       0.00000000       0.00000000       0.00000000       0.00000000       0.00000000       0.00000000       0.00000000       0.00000000       0.00000000       0.00000000
         0.00000000       0.00000000       0.00000000       0.00000000       0.00000000       0.00000000       0.00000000       0.00000000       0.00000000       0.00000000       0.00000000       0.00000000       0.00000000       0.00000000       0.00000000       0.00000000       0.00000000       8.02000046       5.98000002       4.05000019