BEGIN options
  XORIGIN  6.60022500E+05
  YORIGIN  6.14997750E+06
END options

BEGIN dimensions
  NLAY  1
  NROW  300
  NCOL  300
END dimensions

BEGIN griddata
  delr
    INTERNAL  FACTOR  1.0
       163.33333333     163.33333333     163.33333333     163.33333333     163.33333333     163.33333333     163.33333333     163.33333333     163.33333333     163.33333333     163.33333333     163.33333333     163.33333333     163.33333333     163.33333333     163.33333333     163.33333333     163.33333333     163.33333333     163.33333333
       163.33333333     163.33333333     163.33333333     163.33333333     163.33333333     163.33333333     163.33333333     163.33333333     163.33333333     163.33333333     163.33333333     163.33333333     163.33333333     163.33333333     163.33333333     163.33333333     163.33333333     163.33333333     163.33333333     163.33333333
       163.33333333     163.33333333     163.33333333     163.33333333     163.33333333     163.33333333     163.33333333     163.33333333     163.33333333     163.33333333     163.33333333     163.33333333     163.33333333     163.33333333     163.33333333     163.33333333     163.33333333     163.33333333     163.33333333     163.33333333
       163.33333333     163.33333333     163.33333333     163.33333333     163.33333333     163.33333333     163.33333333     163.33333333     163.33333333     163.33333333     163.33333333     163.33333333     163.33333333     163.33333333     163.33333333     163.33333333     163.33333333     163.33333333     163.33333333     163.33333333
       163.33333333     163.33333333     163.33333333     163.33333333     163.33333333     163.33333333     163.33333333     163.33333333     163.33333333     163.33333333     163.33333333     163.33333333     163.33333333     163.33333333     163.33333333     163.33333333     163.33333333     163.33333333     163.33333333     163.33333333
       163.33333333     163.33333333     163.33333333     163.33333333     163.33333333     163.33333333     163.33333333     163.33333333     163.33333333     163.33333333     163.33333333     163.33333333     163.33333333     163.33333333     163.33333333     163.33333333     163.33333333     163.33333333     163.33333333     163.33333333
       163.33333333     163.33333333     163.33333333     163.33333333     163.33333333     163.33333333     163.33333333     163.33333333     163.33333333     163.33333333     163.33333333     163.33333333     163.33333333     163.33333333     163.33333333     163.33333333     163.33333333     163.33333333     163.33333333     163.33333333
       163.33333333     163.33333333     163.33333333     163.33333333     163.33333333     163.33333333     163.33333333     163.33333333     163.33333333     163.33333333     163.33333333     163.33333333     163.33333333     163.33333333     163.33333333     163.33333333     163.33333333     163.33333333     163.33333333     163.33333333
       163.33333333     163.33333333     163.33333333     163.33333333     163.33333333     163.33333333     163.33333333     163.33333333     163.33333333     163.33333333     163.33333333     163.33333333     163.33333333     163.33333333     163.33333333     163.33333333     163.33333333     163.33333333     163.33333333     163.33333333
       163.33333333     163.33333333     163.33333333     163.33333333     163.33333333     163.33333333     163.33333333     163.33333333     163.33333333     163.33333333     163.33333333     163.33333333     163.33333333     163.33333333     163.33333333     163.33333333     163.33333333     163.33333333     163.33333333     163.33333333
       163.33333333     163.33333333     163.33333333     163.33333333     163.33333333     163.33333333     163.33333333     163.33333333     163.33333333     163.33333333     163.33333333     163.33333333     163.33333333     163.33333333     163.33333333     163.33333333     163.33333333     163.33333333     163.33333333     163.33333333
       163.33333333     163.33333333     163.33333333     163.33333333     163.33333333     163.33333333     163.33333333     163.33333333     163.33333333     163.33333333     163.33333333     163.33333333     163.33333333     163.33333333     163.33333333     163.33333333     163.33333333     163.33333333     163.33333333     163.33333333
       163.33333333     163.33333333     163.33333333     163.33333333     163.33333333     163.33333333     163.33333333     163.33333333     163.33333333     163.33333333     163.33333333     163.33333333     163.33333333     163.33333333     163.33333333     163.33333333     163.33333333     163.33333333     163.33333333     163.33333333
       163.33333333     163.33333333     163.33333333     163.33333333     163.33333333     163.33333333     163.33333333     163.33333333     163.33333333     163.33333333     163.33333333     163.33333333     163.33333333     163.33333333     163.33333333     163.33333333     163.33333333     163.33333333     163.33333333     163.33333333
       163.33333333     163.33333333     163.33333333     163.33333333     163.33333333     163.33333333     163.33333333     163.33333333     163.33333333     163.33333333     163.33333333     163.33333333     163.33333333     163.33333333     163.33333333     163.33333333     163.33333333     163.33333333     163.33333333     163.33333333
  delc
    INTERNAL  FACTOR  1.0
       183.33333333     183.33333333     183.33333333     183.33333333     183.33333333     183.33333333     183.33333333     183.33333333     183.33333333     183.33333333     183.33333333     183.33333333     183.33333333     183.33333333     183.33333333     183.33333333     183.33333333     183.33333333     183.33333333     183.33333333
       183.33333333     183.33333333     183.33333333     183.33333333     183.33333333     183.33333333     183.33333333     183.33333333     183.33333333     183.33333333     183.33333333     183.33333333     183.33333333     183.33333333     183.33333333     183.33333333     183.33333333     183.33333333     183.33333333     183.33333333
       183.33333333     183.33333333     183.33333333     183.33333333     183.33333333     183.33333333     183.33333333     183.33333333     183.33333333     183.33333333     183.33333333     183.33333333     183.33333333     183.33333333     183.33333333     183.33333333     183.33333333     183.33333333     183.33333333     183.33333333
       183.33333333     183.33333333     183.33333333     183.33333333     183.33333333     183.33333333     183.33333333     183.33333333     183.33333333     183.33333333     183.33333333     183.33333333     183.33333333     183.33333333     183.33333333     183.33333333     183.33333333     183.33333333     183.33333333     183.33333333
       183.33333333     183.33333333     183.33333333     183.33333333     183.33333333     183.33333333     183.33333333     183.33333333     183.33333333     183.33333333     183.33333333     183.33333333     183.33333333     183.33333333     183.33333333     183.33333333     183.33333333     183.33333333     183.33333333     183.33333333
       183.33333333     183.33333333     183.33333333     183.33333333     183.33333333     183.33333333     183.33333333     183.33333333     183.33333333     183.33333333     183.33333333     183.33333333     183.33333333     183.33333333     183.33333333     183.33333333     183.33333333     183.33333333     183.33333333     183.33333333
       183.33333333     183.33333333     183.33333333     183.33333333     183.33333333     183.33333333     183.33333333     183.33333333     183.33333333     183.33333333     183.33333333     183.33333333     183.33333333     183.33333333     183.33333333     183.33333333     183.33333333     183.33333333     183.33333333     183.33333333
       183.33333333     183.33333333     183.33333333     183.33333333     183.33333333     183.33333333     183.33333333     183.33333333     183.33333333     183.33333333     183.33333333     183.33333333     183.33333333     183.33333333     183.33333333     183.33333333     183.33333333     183.33333333     183.33333333     183.33333333
       183.33333333     183.33333333     183.33333333     183.33333333     183.33333333     183.33333333     183.33333333     183.33333333     183.33333333     183.33333333     183.33333333     183.33333333     183.33333333     183.33333333     183.33333333     183.33333333     183.33333333     183.33333333     183.33333333     183.33333333
       183.33333333     183.33333333     183.33333333     183.33333333     183.33333333     183.33333333     183.33333333     183.33333333     183.33333333     183.33333333     183.33333333     183.33333333     183.33333333     183.33333333     183.33333333     183.33333333     183.33333333     183.33333333     183.33333333     183.33333333
       183.33333333     183.33333333     183.33333333     183.33333333     183.33333333     183.33333333     183.33333333     183.33333333     183.33333333     183.33333333     183.33333333     183.33333333     183.33333333     183.33333333     183.33333333     183.33333333     183.33333333     183.33333333     183.33333333     183.33333333
       183.33333333     183.33333333     183.33333333     183.33333333     183.33333333     183.33333333     183.33333333     183.33333333     183.33333333     183.33333333     183.33333333     183.33333333     183.33333333     183.33333333     183.33333333     183.33333333     183.33333333     183.33333333     183.33333333     183.33333333
       183.33333333     183.33333333     183.33333333     183.33333333     183.33333333     183.33333333     183.33333333     183.33333333     183.33333333     183.33333333     183.33333333     183.33333333     183.33333333     183.33333333     183.33333333     183.33333333     183.33333333     183.33333333     183.33333333     183.33333333
       183.33333333     183.33333333     183.33333333     183.33333333     183.33333333     183.33333333     183.33333333     183.33333333     183.33333333     183.33333333     183.33333333     183.33333333     183.33333333     183.33333333     183.33333333     183.33333333     183.33333333     183.33333333     183.33333333     183.33333333
       183.33333333     183.33333333     183.33333333     183.33333333     183.33333333     183.33333333     183.33333333     183.33333333     183.33333333     183.33333333     183.33333333     183.33333333     183.33333333     183.33333333     183.33333333     183.33333333     183.33333333     183.33333333     183.33333333     183.33333333
  top
    INTERNAL  FACTOR  1.0
         0.00000000       0.00000000       0.00000000       0.00000000       0.00000000       0.00000000       0.00000000       0.00000000       0.00000000       0.00000000       0.00000000       0.00000000       0.00000000       0.00000000       0.00000000       0.00000000       0.00000000       0.00000000       0.00000000       0.00000000
         0.00000000       0.00000000       0.00000000       0.00000000       0.00000000       0.00000000       0.00000000       0.00000000       0.00000000       0.00000000       0.00000000       0.00000000       0.00000000       0.00000000       0.00000000       0.00000000       0.00000000       0.00000000       0.00000000       0.00000000
         0.00000000       0.00000000       0.00000000       0.00000000       0.00000000       0.00000000       0.00000000       0.00000000       0.00000000       0.00000000       0.00000000       0.00000000       0.00000000       0.00000000       0.00000000       0.00000000       0.00000000       0.00000000       0.00000000       0.00000000
         0.00000000       0.00000000       0.00000000       0.00000000       0.00000000       0.00000000       0.00000000       0.00000000       0.00000000       0.00000000       0.00000000       0.00000000       0.00000000       0.00000000       0.00000000       0.00000000       0.00000000       0.00000000       0.00000000       0.00000000
         0.00000000       0.00000000       0.00000000       0.00000000       0.00000000       0.00000000       0.00000000       0.00000000       0.00000000       0.00000000       0.00000000       0.00000000       0.00000000       0.00000000       0.00000000       0.00000000       0.00000000       0.00000000       0.00000000       0.00000000
         0.00000000       0.00000000       0.00000000       0.00000000       0.00000000       0.00000000       0.00000000       0.00000000       0.00000000       0.00000000       0.00000000       0.00000000       0.00000000       0.00000000       0.00000000       0.00000000       0.00000000       0.00000000       0.00000000       0.00000000
         0.00000000       0.00000000       0.00000000       0.00000000       0.00000000       0.00000000       0.00000000       0.00000000       0.00000000       0.00000000       0.00000000       0.00000000       0.00000000       0.00000000       0.00000000       0.00000000       0.00000000       0.00000000       0.00000000       0.00000000
         0.00000000       0.00000000       0.00000000       0.00000000       0.00000000       0.00000000       0.00000000       0.00000000       0.00000000       0.00000000       0.00000000       0.00000000       0.00000000       0.00000000       0.00000000       0.00000000       0.00000000       0.00000000       0.00000000       0.00000000
         0.00000000       0.00000000       0.00000000       0.00000000       0.00000000       0.00000000       0.00000000       0.00000000       0.00000000       0.00000000       0.00000000       0.00000000       0.00000000       0.00000000       0.00000000       0.00000000       0.00000000       0.00000000       0.00000000       0.00000000
         0.00000000       0.00000000       0.00000000       0.00000000       0.00000000       0.00000000       0.00000000       0.00000000       0.00000000       0.00000000       0.00000000       0.00000000       0.00000000       0.00000000       0.00000000       0.00000000       0.00000000       0.00000000       0.00000000       0.00000000
         0.00000000       0.00000000       0.00000000       0.00000000       0.00000000       0.00000000       0.00000000       0.00000000       0.00000000       0.00000000       0.00000000       0.00000000       0.00000000       0.00000000       0.00000000       0.00000000       0.00000000       0.00000000       0.00000000       0.00000000
         0.00000000       0.00000000       0.00000000       0.00000000       0.00000000       0.00000000       0.00000000       0.00000000       0.00000000       0.00000000       0.00000000       0.00000000       0.00000000       0.00000000       0.00000000       0.00000000       0.00000000       0.00000000       0.00000000       0.00000000
         0.00000000       0.00000000       0.00000000       0.00000000       0.00000000       5.73000002       4.51000023       3.57999992       2.14000010       1.44000006       1.09000003      -0.50000000      -0.50000000      -0.50000000      -0.50000000      -0.50000000       0.41000000       0.12000000       1.11000001       1.15999997
         1.15999997       1.70000005       0.50000000       0.23000000       1.25000000       0.00000000       0.00000000       0.00000000       0.00000000       0.00000000       0.00000000       0.00000000       0.00000000       0.00000000       0.00000000       0.00000000       0.00000000       0.00000000       0.00000000       0.00000000
         0.00000000       0.00000000       0.00000000       0.00000000       0.00000000       0.00000000       0.00000000       0.00000000       0.00000000       0.00000000       0.00000000       0.00000000       0.00000000       0.00000000       0.00000000       0.00000000       0.00000000       0.00000000       0.00000000       0.00000000
         0.00000000       0.00000000       0.00000000       0.00000000       0.00000000       0.00000000       0.00000000       0.00000000       0.00000000       0.00000000       0.00000000       0.00000000       0.00000000       0.00000000       0.00000000       0.00000000       0.00000000       0.00000000       0.00000000       0.00000000
         0.00000000       0.00000000       0.00000000       0.00000000       0.00000000       0.00000000       0.00000000       0.00000000       0.00000000       0.00000000       0.00000000       0.00000000       0.00000000       0.00000000       0.00000000       0.00000000       0.00000000       0.00000000       0.00000000       0.00000000
         0.00000000       0.00000000       0.00000000       0.00000000       0.00000000       0.00000000       0.00000000       0.00000000       0.00000000       0.00000000       0.00000000       0.00000000       0.00000000       0.00000000       0.00000000       0.00000000       0.00000000       0.00000000       0.00000000       0.00000000
         0.00000000       0.00000000       0.00000000       0.00000000       0.00000000       0.00000000       0.00000000       0.00000000       0.00000000       0.00000000       0.00000000       0.00000000       0.00000000       0.00000000       0.00000000       0.00000000       0.00000000       0.00000000       0.00000000       0.00000000
         0.00000000       0.00000000       0.00000000       0.00000000       0.00000000       0.00000000       0.00000000       0.00000000       0.00000000       0.00000000       0.00000000       0.00000000       0.00000000       0.00000000       0.00000000       0.00000000       0.00000000       0.00000000       0.00000000       0.00000000
         0.00000000       0.00000000       0.00000000       0.00000000       0.00000000       0.00000000       0.00000000       0.00000000       0.00000000       0.00000000       0.00000000       0.00000000       0.00000000       0.00000000       0.00000000       0.00000000       0.00000000       0.00000000       0.00000000       0.00000000
         0.00000000       0.00000000       0.00000000       0.00000000       0.00000000       0.00000000       0.00000000       0.00000000       0.00000000       0.00000000       0.00000000       0.00000000       0.00000000       0.00000000       0.00000000       0.00000000       0.00000000       0.00000000       0.00000000       0.00000000
         0.00000000       0.00000000       0.00000000       0.00000000       0.00000000       0.00000000       0.00000000       0.00000000       0.00000000       0.00000000       0.00000000       0.00000000       0.00000000       0.00000000       0.00000000       0.00000000       0.00000000       0.00000000       0.00000000       0.00000000
         0.00000000       0.00000000       0.00000000       0.00000000       0.00000000       0.00000000       0.00000000       0.00000000       0.00000000       0.00000000       0.00000000       0.00000000       0.00000000       0.00000000       0.00000000       0.00000000       0.00000000       0.00000000       0.00000000       0.00000000
         0.00000000       0.00000000       0.00000000       0.00000000       0.00000000       0.00000000       0.00000000       0.00000000       0.00000000       0.00000000       0.00000000       0.00000000       0.00000000       0.00000000       0.00000000       0.00000000       0.00000000       0.00000000       0.00000000       0.00000000
         0.00000000       0.00000000       0.00000000       0.00000000       0.00000000       0.00000000       0.00000000       0.00000000       0.00000000       0.00000000       0.00000000       0.00000000       0.00000000       0.00000000       0.00000000       0.00000000       0.00000000       0.00000000       0.00000000       0.00000000
         0.00000000       0.00000000       0.00000000       0.00000000       0.00000000       0.00000000       0.00000000       0.00000000       0.00000000       0.00000000       0.00000000       0.00000000       0.00000000       0.00000000       0.00000000       0.00000000       0.00000000       0.00000000       0.00000000       0.00000000
         0.00000000       0.00000000       0.00000000       0.00000000       0.00000000       6.19000006       5.19000006       3.94000006       2.60999990       1.87000000       1.37000000       0.30000001      -0.50000000      -0.50000000      -0.50000000      -0.50000000       0.31000000      -0.50000000       0.00000000       1.12000000
         1.13999999       0.38000000       0.50000000       0.28000000       1.32000005       0.00000000       0.00000000       0.00000000       0.00000000       0.00000000       0.00000000       0.00000000       0.00000000       0.00000000       0.00000000       0.00000000       0.00000000       0.00000000       0.00000000       0.00000000
         0.00000000       0.00000000       0.00000000       0.00000000       0.00000000       0.00000000       0.00000000       0.00000000       0.00000000       0.00000000       0.00000000       0.00000000       0.00000000       0.00000000       0.00000000       0.00000000       0.00000000       0.00000000       0.00000000       0.00000000
         0.00000000       0.00000000       0.00000000       0.00000000       0.00000000       0.00000000       0.00000000       0.00000000       0.00000000       0.00000000       0.00000000       0.00000000       0.00000000       0.00000000       0.00000000       0.00000000       0.00000000       0.00000000       0.00000000       0.00000000
         0.00000000       0.00000000       0.00000000       0.00000000       0.00000000       0.00000000       0.00000000       0.00000000       0.00000000       0.00000000       0.00000000       0.00000000       0.00000000       0.00000000       0.00000000       0.00000000       0.00000000       0.00000000       0.00000000       0.00000000
         0.00000000       0.00000000       0.00000000       0.00000000       0.00000000       0.00000000       0.00000000       0.00000000       0.00000000       0.00000000       0.00000000       0.00000000       0.00000000       0.00000000       0.00000000       0.00000000       0.00000000       0.00000000       0.00000000       0.00000000
         0.00000000       0.00000000       0.00000000       0.00000000       0.00000000       0.00000000       0.00000000       0.00000000       0.00000000       0.00000000       0.00000000       0.00000000       0.00000000       0.00000000       0.00000000       0.00000000       0.00000000       0.00000000       0.00000000       0.00000000
         0.00000000       0.00000000       0.00000000       0.00000000       0.00000000       0.00000000       0.00000000       0.00000000       0.00000000       0.00000000       0.00000000       0.00000000       0.00000000       0.00000000       0.00000000       0.00000000       0.00000000       0.00000000       0.00000000       0.00000000
         0.00000000       0.00000000       0.00000000       0.00000000       0.00000000       0.00000000       0.00000000       0.00000000       0.00000000       0.00000000       0.00000000       0.00000000       0.00000000       0.00000000       0.00000000       0.00000000       0.00000000       0.00000000       0.00000000       0.00000000
         0.00000000       0.00000000       0.00000000       0.00000000       0.00000000       0.00000000       0.00000000       0.00000000       0.00000000       0.00000000       0.00000000       0.00000000       0.00000000       0.00000000       0.00000000       0.00000000       0.00000000       0.00000000       0.00000000       0.00000000
         0.00000000       0.00000000       0.00000000       0.00000000       0.00000000       0.00000000       0.00000000       0.00000000       0.00000000       0.00000000       0.00000000       0.00000000       0.00000000       0.00000000       0.00000000       0.00000000       0.00000000       0.00000000       0.00000000       0.00000000
         0.00000000       0.00000000       0.00000000       0.00000000       0.00000000       0.00000000       0.00000000       0.00000000       0.00000000       0.00000000       0.00000000       0.00000000       0.00000000       0.00000000       0.00000000       0.00000000       0.00000000       0.00000000       0.00000000       0.00000000
         0.00000000       0.00000000       0.00000000       0.00000000       0.00000000       0.00000000       0.00000000       0.00000000       0.00000000       0.00000000       0.00000000       0.00000000       0.00000000       0.00000000       0.00000000       0.00000000       0.00000000       0.00000000       0.00000000       0.00000000
         0.00000000       0.00000000       0.00000000       0.00000000       0.00000000       0.00000000       0.00000000       0.00000000       0.00000000       0.00000000       0.00000000       0.00000000       0.00000000       0.00000000       0.00000000       0.00000000       0.00000000       0.00000000       0.00000000       0.00000000
         0.00000000       0.00000000       0.00000000       0.00000000       0.00000000       0.00000000       0.00000000       0.00000000       0.00000000       0.00000000       0.00000000       0.00000000       0.00000000       0.00000000       0.00000000       0.00000000       0.00000000       0.00000000       0.00000000       0.00000000
         0.00000000       0.00000000       0.00000000       0.00000000       0.00000000       6.96000004       5.69000006       3.73000002       2.58999991       1.82000005       1.32000005       0.30000001      -0.50000000      -0.50000000      -0.50000000       0.38000000      -0.50000000      -0.50000000      -0.50000000       0.88000000
         1.24000001       0.27000001       0.50000000       0.31000000       0.00000000       0.00000000       0.00000000       0.00000000       0.00000000       0.00000000       0.00000000       0.00000000       0.00000000       0.00000000       0.00000000       0.00000000       0.00000000       0.00000000       0.00000000       0.00000000
         0.00000000       0.00000000       0.00000000       0.00000000       0.00000000       0.00000000       0.00000000       0.00000000       0.00000000       0.00000000       0.00000000       0.00000000       0.00000000       0.00000000       0.00000000       0.00000000       0.00000000       0.00000000       0.00000000       0.00000000
         0.00000000       0.00000000       0.00000000       0.00000000       0.00000000       0.00000000       0.00000000       0.00000000       0.00000000       0.00000000       0.00000000       0.00000000       0.00000000       0.00000000       0.00000000       0.00000000       0.00000000       0.00000000       0.00000000       0.00000000
         0.00000000       0.00000000       0.00000000       0.00000000       0.00000000       0.00000000       0.00000000       0.00000000       0.00000000       0.00000000       0.00000000       0.00000000       0.00000000       0.00000000       0.00000000       0.00000000       0.00000000       0.00000000       0.00000000       0.00000000
         0.00000000       0.00000000       0.00000000       0.00000000       0.00000000       0.00000000       0.00000000       0.00000000       0.00000000       0.00000000       0.00000000       0.00000000       0.00000000       0.00000000       0.00000000       0.00000000       0.00000000       0.00000000       0.00000000       0.00000000
         0.00000000       0.00000000       0.00000000       0.00000000       0.00000000       0.00000000       0.00000000       0.00000000       0.00000000       0.00000000       0.00000000       0.00000000       0.00000000       0.00000000       0.00000000       0.00000000       0.00000000       0.00000000       0.00000000       0.00000000
         0.00000000       0.00000000       0.00000000       0.00000000       0.00000000       0.00000000       0.00000000       0.00000000       0.00000000       0.00000000       0.00000000       0.00000000       0.00000000       0.00000000       0.00000000       0.00000000       0.00000000       0.00000000       0.00000000       0.00000000
         0.00000000       0.00000000       0.00000000       0.00000000       0.00000000       0.00000000       0.00000000       0.00000000       0.00000000       0.00000000       0.00000000       0.00000000       0.00000000       0.00000000       0.00000000       0.00000000       0.00000000       0.00000000       0.00000000       0.00000000
         0.00000000       0.00000000       0.00000000       0.00000000       0.00000000       0.00000000       0.00000000       0.00000000       0.00000000       0.00000000       0.00000000       0.00000000       0.00000000       0.00000000       0.00000000       0.00000000       0.00000000       0.00000000       0.00000000       0.00000000
         0.00000000       0.00000000       0.00000000       0.00000000       0.00000000       0.00000000       0.00000000       0.00000000       0.00000000       0.00000000       0.00000000       0.00000000       0.00000000       0.00000000       0.00000000       0.00000000       0.00000000       0.00000000       0.00000000       0.00000000
         0.00000000       0.00000000       0.00000000       0.00000000       0.00000000       0.00000000       0.00000000       0.00000000       0.00000000       0.00000000       0.00000000       0.00000000       0.00000000       0.00000000       0.00000000       0.00000000       0.00000000       0.00000000       0.00000000       0.00000000
         0.00000000       0.00000000       0.00000000       0.00000000       0.00000000       0.00000000       0.00000000       0.00000000       0.00000000       0.00000000       0.00000000       0.00000000       0.00000000       0.00000000       0.00000000       0.00000000       0.00000000       0.00000000       0.00000000       0.00000000
         0.00000000       0.00000000       0.00000000       0.00000000       0.00000000       0.00000000       0.00000000       0.00000000       0.00000000       0.00000000       0.00000000       0.00000000       0.00000000       0.00000000       0.00000000       0.00000000       0.00000000       0.00000000       0.00000000       0.00000000