BEGIN griddata
  strt
    INTERNAL  FACTOR  1.0
       -74.00000000     -74.00000000     -74.00000000     -74.00000000     -74.00000000     -74.00000000     -74.00000000     -74.00000000     -74.00000000     -74.00000000     -74.00000000     -74.00000000     -74.00000000     -74.00000000     -74.00000000     -74.00000000     -74.00000000     -74.00000000     -74.00000000     -74.00000000
       -74.00000000     -74.00000000     -74.00000000     -74.00000000     -74.00000000     -74.00000000     -74.00000000     -74.00000000     -74.00000000     -74.00000000     -74.00000000     -74.00000000     -74.00000000     -74.00000000     -74.00000000     -74.00000000     -74.00000000     -74.00000000     -74.00000000     -74.00000000
       -74.00000000     -74.00000000     -74.00000000     -74.00000000     -74.00000000     -74.00000000     -74.00000000     -74.00000000     -74.00000000     -74.00000000     -74.00000000     -74.00000000     -74.00000000     -74.00000000     -74.00000000     -74.00000000     -74.00000000     -74.00000000     -74.00000000     -74.00000000
       -74.00000000     -74.00000000     -74.00000000     -74.00000000     -74.00000000     -74.00000000     -74.00000000     -74.00000000     -74.00000000     -74.00000000     -74.00000000     -74.00000000     -74.00000000     -74.00000000     -74.00000000     -74.00000000     -74.00000000     -74.00000000     -74.00000000     -74.00000000
       -74.00000000     -74.00000000     -74.00000000     -74.00000000     -74.00000000     -74.00000000     -74.00000000     -74.00000000     -74.00000000     -74.00000000     -74.00000000     -74.00000000     -74.00000000     -74.00000000     -74.00000000     -74.00000000     -74.00000000     -74.00000000     -74.00000000     -74.00000000
       -74.00000000     -74.00000000     -74.00000000     -74.00000000     -74.00000000     -74.00000000     -74.00000000     -74.00000000     -74.00000000     -74.00000000     -74.00000000     -74.00000000     -74.00000000     -74.00000000     -74.00000000     -74.00000000     -74.00000000     -74.00000000     -74.00000000     -74.00000000
       -74.00000000     -74.00000000     -66.68000031     -69.38999939     -71.54000092     -73.11999512     -74.50000000     -74.50000000     -74.50000000     -73.00999451     -72.93000031     -73.63000488     -74.00000000     -74.00000000     -74.00000000     -74.00000000     -74.00000000     -74.00000000     -74.00000000     -74.00000000
       -74.00000000     -74.00000000    -201.02180481    -204.69129944    -206.76640320    -209.44999695    -212.49349976    -216.49270630    -220.32820129    -225.13949585
       -74.00000000     -74.00000000     -74.00000000     -74.00000000     -74.00000000     -74.00000000     -74.00000000     -74.00000000     -74.00000000     -74.00000000     -74.00000000     -74.00000000     -74.00000000     -74.00000000     -74.00000000     -74.00000000     -74.00000000     -74.00000000     -74.00000000     -74.00000000
       -74.00000000     -74.00000000     -74.00000000     -74.00000000     -74.00000000     -74.00000000     -74.00000000     -74.00000000     -74.00000000     -74.00000000     -74.00000000     -74.00000000     -74.00000000     -74.00000000     -74.00000000     -74.00000000     -74.00000000     -74.00000000     -74.00000000     -74.00000000
       -74.00000000     -74.00000000     -74.00000000     -74.00000000     -74.00000000     -74.00000000     -74.00000000     -74.00000000     -74.00000000     -74.00000000     -74.00000000     -74.00000000     -74.00000000     -74.00000000     -74.00000000     -74.00000000     -74.00000000     -74.00000000     -74.00000000     -74.00000000
       -74.00000000     -74.00000000     -74.00000000     -74.00000000     -74.00000000     -74.00000000     -74.00000000     -74.00000000     -74.00000000     -74.00000000     -74.00000000     -74.00000000     -74.00000000     -74.00000000     -74.00000000     -74.00000000     -74.00000000     -74.00000000     -74.00000000     -74.00000000
       -74.00000000     -74.00000000     -74.00000000     -74.00000000     -74.00000000     -74.00000000     -74.00000000     -74.00000000     -74.00000000     -74.00000000     -74.00000000     -74.00000000     -74.00000000     -74.00000000     -74.00000000     -74.00000000     -74.00000000     -74.00000000     -74.00000000     -74.00000000
       -74.00000000     -74.00000000     -74.00000000     -74.00000000     -74.00000000     -74.00000000     -74.00000000     -74.00000000     -74.00000000     -74.00000000     -74.00000000     -74.00000000     -74.00000000     -74.00000000     -74.00000000     -74.00000000     -74.00000000     -74.00000000     -74.00000000     -74.00000000
       -74.00000000     -74.00000000     -66.84999847     -69.83000183     -71.59999847     -73.41999817     -73.50000000     -74.50000000     -74.50000000     -73.43000031     -73.59999847     -73.63000488     -74.00000000     -74.00000000     -74.00000000     -74.00000000     -74.00000000     -74.00000000     -74.00000000     -74.00000000
       -74.00000000    -198.45710754    -202.05110168    -205.77029419    -207.93519592    -210.36749268    -213.29580688    -217.21499634    -221.02009583    -225.80929565
       -74.00000000     -74.00000000     -74.00000000     -74.00000000     -74.00000000     -74.00000000     -74.00000000     -74.00000000     -74.00000000     -74.00000000     -74.00000000     -74.00000000     -74.00000000     -74.00000000     -74.00000000     -74.00000000     -74.00000000     -74.00000000     -74.00000000     -74.00000000
       -74.00000000     -74.00000000     -74.00000000     -74.00000000     -74.00000000     -74.00000000     -74.00000000     -74.00000000     -74.00000000     -74.00000000     -74.00000000     -74.00000000     -74.00000000     -74.00000000     -74.00000000     -74.00000000     -74.00000000     -74.00000000     -74.00000000     -74.00000000
       -74.00000000     -74.00000000     -74.00000000     -74.00000000     -74.00000000     -74.00000000     -74.00000000     -74.00000000     -74.00000000     -74.00000000     -74.00000000     -74.00000000     -74.00000000     -74.00000000     -74.00000000     -74.00000000     -74.00000000     -74.00000000     -74.00000000     -74.00000000
       -74.00000000     -74.00000000     -74.00000000     -74.00000000     -74.00000000     -74.00000000     -74.00000000     -74.00000000     -74.00000000     -74.00000000     -74.00000000     -74.00000000     -74.00000000     -74.00000000     -74.00000000     -74.00000000     -74.00000000     -74.00000000     -74.00000000     -74.00000000
       -74.00000000     -74.00000000     -74.00000000     -74.00000000     -74.00000000     -74.00000000     -74.00000000     -74.00000000     -74.00000000     -74.00000000     -74.00000000     -74.00000000     -74.00000000     -74.00000000     -74.00000000     -74.00000000     -74.00000000     -74.00000000     -74.00000000     -74.00000000
       -74.00000000     -74.00000000     -74.00000000     -74.00000000     -74.00000000     -74.00000000     -74.00000000     -74.00000000     -74.00000000     -74.00000000     -74.00000000     -74.00000000     -74.00000000     -74.00000000     -74.00000000     -74.00000000     -74.00000000     -74.00000000     -74.00000000     -74.00000000
       -74.00000000     -74.00000000     -66.23999786     -69.80999756     -72.45999908     -73.11000061     -72.94999695     -73.44000244     -72.30000305     -71.83999634     -74.50000000     -73.83000183     -74.00000000     -74.00000000     -74.00000000     -74.00000000     -74.00000000     -74.00000000     -74.00000000     -74.00000000
       -74.00000000    -199.74530029    -203.33700562    -206.76640320    -209.20129395    -211.54330444    -214.40319824    -218.19250488    -221.92149353    -226.69909668
       -74.00000000     -74.00000000     -74.00000000     -74.00000000     -74.00000000     -74.00000000     -74.00000000     -74.00000000     -74.00000000     -74.00000000     -74.00000000     -74.00000000     -74.00000000     -74.00000000     -74.00000000     -74.00000000     -74.00000000     -74.00000000     -74.00000000     -74.00000000
       -74.00000000     -74.00000000     -74.00000000     -74.00000000     -74.00000000     -74.00000000     -74.00000000     -74.00000000     -74.00000000     -74.00000000     -74.00000000     -74.00000000     -74.00000000     -74.00000000     -74.00000000     -74.00000000     -74.00000000     -74.00000000     -74.00000000     -74.00000000
       -74.00000000     -74.00000000     -74.00000000     -74.00000000     -74.00000000     -74.00000000     -74.00000000     -74.00000000     -74.00000000     -74.00000000     -74.00000000     -74.00000000     -74.00000000     -74.00000000     -74.00000000     -74.00000000     -74.00000000     -74.00000000     -74.00000000     -74.00000000
       -74.00000000     -74.00000000     -74.00000000     -74.00000000     -74.00000000     -74.00000000     -74.00000000     -74.00000000     -74.00000000     -74.00000000     -74.00000000     -74.00000000     -74.00000000     -74.00000000     -74.00000000     -74.00000000     -74.00000000     -74.00000000     -74.00000000     -74.00000000
       -74.00000000     -74.00000000     -74.00000000     -74.00000000     -74.00000000     -74.00000000     -74.00000000     -74.00000000     -74.00000000     -74.00000000     -74.00000000     -74.00000000     -74.00000000     -74.00000000     -74.00000000     -74.00000000     -74.00000000     -74.00000000     -74.00000000     -74.00000000
       -74.00000000     -74.00000000     -74.00000000     -74.00000000     -74.00000000     -74.00000000     -74.00000000     -74.00000000     -74.00000000     -74.00000000     -74.00000000     -74.00000000     -74.00000000     -74.00000000     -74.00000000     -74.00000000     -74.00000000     -74.00000000     -74.00000000     -74.00000000
       -74.00000000     -74.00000000     -67.18000031     -70.40000153     -71.66999817     -71.11999512     -52.79000092     -51.63999939    -172.15089417    -166.34750366     -49.37999725     -71.74000549     -74.00000000     -74.00000000     -74.00000000     -74.00000000     -74.00000000     -74.00000000     -74.00000000     -74.00000000
       -74.00000000    -201.48680115    -204.94309998    -208.06250000    -210.66009521    -213.09150696    -215.86689758    -219.52749634    -223.16209412    -227.87010193
       -74.00000000     -74.00000000     -74.00000000     -74.00000000     -74.00000000     -74.00000000     -74.00000000     -74.00000000     -74.00000000     -74.00000000     -74.00000000     -74.00000000     -74.00000000     -74.00000000     -74.00000000     -74.00000000     -74.00000000     -74.00000000     -74.00000000     -74.00000000
       -74.00000000     -74.00000000     -74.00000000     -74.00000000     -74.00000000     -74.00000000     -74.00000000     -74.00000000     -74.00000000     -74.00000000     -74.00000000     -74.00000000     -74.00000000     -74.00000000     -74.00000000     -74.00000000     -74.00000000     -74.00000000     -74.00000000     -74.00000000
       -74.00000000     -74.00000000     -74.00000000     -74.00000000     -74.00000000     -74.00000000     -74.00000000     -74.00000000     -74.00000000     -74.00000000     -74.00000000     -74.00000000     -74.00000000     -74.00000000     -74.00000000     -74.00000000     -74.00000000     -74.00000000     -74.00000000     -74.00000000
       -74.00000000     -74.00000000     -74.00000000     -74.00000000     -74.00000000     -74.00000000     -74.00000000     -74.00000000     -74.00000000     -74.00000000     -74.00000000     -74.00000000     -74.00000000     -74.00000000     -74.00000000     -74.00000000     -74.00000000     -74.00000000     -74.00000000     -74.00000000
       -74.00000000     -74.00000000     -74.00000000     -74.00000000     -74.00000000     -74.00000000     -74.00000000     -74.00000000     -74.00000000     -74.00000000     -74.00000000     -74.00000000     -74.00000000     -74.00000000     -74.00000000     -74.00000000     -74.00000000     -74.00000000     -74.00000000     -74.00000000
       -74.00000000     -74.00000000     -74.00000000     -74.00000000     -74.00000000     -74.00000000     -74.00000000     -74.00000000     -74.00000000     -74.00000000     -74.00000000     -74.00000000     -74.00000000     -74.00000000     -74.00000000     -74.00000000     -74.00000000     -74.00000000     -74.00000000     -74.00000000
       -74.00000000     -74.00000000     -68.93000031     -71.45999908     -72.97000122     -57.12999725    -123.75006866    -167.35479736    -161.53430176    -160.09950256    -160.13059998    -162.45649719     -72.36000061     -74.00000000     -74.00000000     -74.00000000     -74.00000000     -74.00000000     -74.00000000     -74.00000000
      -199.86180115    -203.46420288    -207.09910583    -210.29249573    -212.52479553    -215.38980103    -218.08650208    -221.64109802    -225.12210083    -229.62730408
       -74.00000000     -74.00000000     -74.00000000     -74.00000000     -74.00000000     -74.00000000     -74.00000000     -74.00000000     -74.00000000     -74.00000000     -74.00000000     -74.00000000     -74.00000000     -74.00000000     -74.00000000     -74.00000000     -74.00000000     -74.00000000     -74.00000000     -74.00000000
       -74.00000000     -74.00000000     -74.00000000     -74.00000000     -74.00000000     -74.00000000     -74.00000000     -74.00000000     -74.00000000     -74.00000000     -74.00000000     -74.00000000     -74.00000000     -74.00000000     -74.00000000     -74.00000000     -74.00000000     -74.00000000     -74.00000000     -74.00000000
       -74.00000000     -74.00000000     -74.00000000     -74.00000000     -74.00000000     -74.00000000     -74.00000000     -74.00000000     -74.00000000     -74.00000000     -74.00000000     -74.00000000     -74.00000000     -74.00000000     -74.00000000     -74.00000000     -74.00000000     -74.00000000     -74.00000000     -74.00000000
       -74.00000000     -74.00000000     -74.00000000     -74.00000000     -74.00000000     -74.00000000     -74.00000000     -74.00000000     -74.00000000     -74.00000000     -74.00000000     -74.00000000     -74.00000000     -74.00000000     -74.00000000     -74.00000000     -74.00000000     -74.00000000     -74.00000000     -74.00000000
       -74.00000000     -74.00000000     -74.00000000     -74.00000000     -74.00000000     -74.00000000     -74.00000000     -74.00000000     -74.00000000     -74.00000000     -74.00000000     -74.00000000     -74.00000000     -74.00000000     -74.00000000     -74.00000000     -74.00000000     -74.00000000     -74.00000000     -74.00000000
       -74.00000000     -74.00000000     -74.00000000     -74.00000000     -74.00000000     -74.00000000     -74.00000000     -74.00000000     -74.00000000     -74.00000000     -74.00000000     -74.00000000     -74.00000000     -74.00000000     -74.00000000     -74.00000000     -74.00000000     -74.00000000     -74.00000000     -74.00000000
       -74.00000000     -74.00000000     -67.73999786     -72.13000488     -73.88999939     -73.93000031     -55.94000244    -158.48089600    -156.97169495    -156.95829773    -159.50799561    -162.85090637    -167.32519531    -171.28810120    -175.92889404     -73.31999969     -74.00000000     -74.00000000     -74.00000000    -197.05549622
      -201.55079651    -205.34700012    -209.17820740    -212.66760254    -214.86549377    -218.03520203    -220.73609924    -224.30909729    -227.59010315    -231.73689270
       -74.00000000     -74.00000000     -74.00000000     -74.00000000     -74.00000000     -74.00000000     -74.00000000     -74.00000000     -74.00000000     -74.00000000     -74.00000000     -74.00000000     -74.00000000     -74.00000000     -74.00000000     -74.00000000     -74.00000000     -74.00000000     -74.00000000     -74.00000000
       -74.00000000     -74.00000000     -74.00000000     -74.00000000     -74.00000000     -74.00000000     -74.00000000     -74.00000000     -74.00000000     -74.00000000     -74.00000000     -74.00000000     -74.00000000     -74.00000000     -74.00000000     -74.00000000     -74.00000000     -74.00000000     -74.00000000     -74.00000000
       -74.00000000     -74.00000000     -74.00000000     -74.00000000     -74.00000000     -74.00000000     -74.00000000     -74.00000000     -74.00000000     -74.00000000     -74.00000000     -74.00000000     -74.00000000     -74.00000000     -74.00000000     -74.00000000     -74.00000000     -74.00000000     -74.00000000     -74.00000000
       -74.00000000     -74.00000000     -74.00000000     -74.00000000     -74.00000000     -74.00000000     -74.00000000     -74.00000000     -74.00000000     -74.00000000     -74.00000000     -74.00000000     -74.00000000     -74.00000000     -74.00000000     -74.00000000     -74.00000000     -74.00000000     -74.00000000     -74.00000000
       -74.00000000     -74.00000000     -74.00000000     -74.00000000     -74.00000000     -74.00000000     -74.00000000     -74.00000000     -74.00000000     -74.00000000     -74.00000000     -74.00000000     -74.00000000     -74.00000000     -74.00000000     -74.00000000     -74.00000000     -74.00000000     -74.00000000     -74.00000000
       -74.00000000     -74.00000000     -74.00000000     -74.00000000     -74.00000000     -74.00000000     -74.00000000     -74.00000000     -74.00000000     -74.00000000     -74.00000000     -74.00000000     -74.00000000     -74.00000000     -74.00000000     -74.00000000     -74.00000000     -74.00000000     -74.00000000     -74.00000000
       -74.00000000     -74.00000000     -67.48999786     -71.75000000     -73.93000031     -73.93000031     -52.43000031    -153.92329407    -153.89990234    -156.02609253    -159.87719727    -163.68609619    -168.33560181    -172.34620667    -177.05020142    -181.09849548     -74.00000000    -189.89239502    -194.61970520    -198.65730286
      -203.35870361    -207.34199524    -211.40089417    -215.25169373    -218.09500122    -221.47680664    -223.93170166    -227.35690308    -230.48620605    -234.56849670
       -74.00000000     -74.00000000     -74.00000000     -74.00000000     -74.00000000     -74.00000000     -74.00000000     -74.00000000     -74.00000000     -74.00000000     -74.00000000     -74.00000000     -74.00000000     -74.00000000     -74.00000000     -74.00000000     -74.00000000     -74.00000000     -74.00000000     -74.00000000
       -74.00000000     -74.00000000     -74.00000000     -74.00000000     -74.00000000     -74.00000000     -74.00000000     -74.00000000     -74.00000000     -74.00000000     -74.00000000     -74.00000000     -74.00000000     -74.00000000     -74.00000000     -74.00000000     -74.00000000     -74.00000000     -74.00000000     -74.00000000
       -74.00000000     -74.00000000     -74.00000000     -74.00000000     -74.00000000     -74.00000000     -74.00000000     -74.00000000     -74.00000000     -74.00000000     -74.00000000     -74.00000000     -74.00000000     -74.00000000     -74.00000000     -74.00000000     -74.00000000     -74.00000000     -74.00000000     -74.00000000
       -74.00000000     -74.00000000     -74.00000000     -74.00000000     -74.00000000     -74.00000000     -74.00000000     -74.00000000     -74.00000000     -74.00000000     -74.00000000     -74.00000000     -74.00000000     -74.00000000     -74.00000000     -74.00000000     -74.00000000     -74.00000000     -74.00000000     -74.00000000
       -74.00000000     -74.00000000     -74.00000000     -74.00000000     -74.00000000     -74.00000000     -74.00000000     -74.00000000     -74.00000000     -74.00000000     -74.00000000     -74.00000000     -74.00000000     -74.00000000     -74.00000000     -74.00000000     -74.00000000     -74.00000000     -74.00000000     -74.00000000
       -74.00000000     -74.00000000     -74.00000000     -74.00000000     -74.00000000     -74.00000000     -74.00000000     -74.00000000     -74.00000000     -74.00000000     -74.00000000     -74.00000000     -74.00000000     -74.00000000     -74.00000000     -74.00000000     -74.00000000     -74.00000000     -74.00000000     -74.00000000
       -74.00000000     -74.00000000     -69.08000183     -71.36999512     -73.93000031     -73.93000031     -74.05000305    -150.36770630    -153.07119751    -156.37469482    -160.82380676    -164.82710266    -169.53700256    -173.60600281    -178.38769531    -182.51269531    -187.35159302    -191.51750183    -196.39559937    -200.59739685
      -205.54890442    -209.74479675    -214.10310364    -218.43829346    -222.22380066    -227.20710754    -228.40020752    -231.94830322    -235.29490662    -239.71899414
       -74.00000000     -74.00000000     -74.00000000     -74.00000000     -74.00000000     -74.00000000     -74.00000000     -74.00000000     -74.00000000     -74.00000000     -74.00000000     -74.00000000     -74.00000000     -74.00000000     -74.00000000     -74.00000000     -74.00000000     -74.00000000     -74.00000000     -74.00000000
       -74.00000000     -74.00000000     -74.00000000     -74.00000000     -74.00000000     -74.00000000     -74.00000000     -74.00000000     -74.00000000     -74.00000000     -74.00000000     -74.00000000     -74.00000000     -74.00000000     -74.00000000     -74.00000000     -74.00000000     -74.00000000     -74.00000000     -74.00000000
       -74.00000000     -74.00000000     -74.00000000     -74.00000000     -74.00000000     -74.00000000     -74.00000000     -74.00000000     -74.00000000     -74.00000000     -74.00000000     -74.00000000     -74.00000000     -74.00000000     -74.00000000     -74.00000000     -74.00000000     -74.00000000     -74.00000000     -74.00000000
       -74.00000000     -74.00000000     -74.00000000     -74.00000000     -74.00000000     -74.00000000     -74.00000000     -74.00000000     -74.00000000     -74.00000000     -74.00000000     -74.00000000     -74.00000000     -74.00000000     -74.00000000     -74.00000000     -74.00000000     -74.00000000     -74.00000000     -74.00000000
       -74.00000000     -74.00000000     -74.00000000     -74.00000000     -74.00000000     -74.00000000     -74.00000000     -74.00000000     -74.00000000     -74.00000000     -74.00000000     -74.00000000     -74.00000000     -74.00000000     -74.00000000     -74.00000000     -74.00000000     -74.00000000     -74.00000000     -74.00000000
       -74.00000000     -74.00000000     -74.00000000     -74.00000000     -74.00000000     -74.00000000     -74.00000000     -74.00000000     -74.00000000     -74.00000000     -74.00000000     -74.00000000     -74.00000000     -74.00000000     -74.00000000     -74.00000000     -74.00000000     -74.00000000     -74.00000000     -74.00000000
       -74.00000000     -74.00000000     -71.08999634     -73.93000031     -73.93000031     -73.93000031     -73.93000031     -52.33000183    -153.36630249    -157.13729858    -161.81140137    -165.85760498    -170.62420654    -174.74830627    -179.60339355    -183.80099487    -188.73880005    -193.00610352    -198.03169250    -202.39770508
      -207.55369568    -211.94779968    -216.60910034    -221.44380188    -226.22459412    -232.45880127    -233.10420227    -237.06939697    -240.92430115    -245.91239929
       -74.00000000     -74.00000000     -74.00000000     -74.00000000     -74.00000000     -74.00000000     -74.00000000     -74.00000000     -74.00000000     -74.00000000     -74.00000000     -74.00000000     -74.00000000     -74.00000000     -74.00000000     -74.00000000     -74.00000000     -74.00000000     -74.00000000     -74.00000000
       -74.00000000     -74.00000000     -74.00000000     -74.00000000     -74.00000000     -74.00000000     -74.00000000     -74.00000000     -74.00000000     -74.00000000     -74.00000000     -74.00000000     -74.00000000     -74.00000000     -74.00000000     -74.00000000     -74.00000000     -74.00000000     -74.00000000     -74.00000000
       -74.00000000     -74.00000000     -74.00000000     -74.00000000     -74.00000000     -74.00000000     -74.00000000     -74.00000000     -74.00000000     -74.00000000     -74.00000000     -74.00000000     -74.00000000     -74.00000000     -74.00000000     -74.00000000     -74.00000000     -74.00000000     -74.00000000     -74.00000000
       -74.00000000     -74.00000000     -74.00000000     -74.00000000     -74.00000000     -74.00000000     -74.00000000     -74.00000000     -74.00000000     -74.00000000     -74.00000000     -74.00000000     -74.00000000     -74.00000000     -74.00000000     -74.00000000     -74.00000000     -74.00000000     -74.00000000     -74.00000000
       -74.00000000     -74.00000000     -74.00000000     -74.00000000     -74.00000000     -74.00000000     -74.00000000     -74.00000000     -74.00000000     -74.00000000     -74.00000000     -74.00000000     -74.00000000     -74.00000000     -74.00000000     -74.00000000     -74.00000000     -74.00000000     -74.00000000     -74.00000000
       -74.00000000     -74.00000000     -74.00000000     -74.00000000     -74.00000000     -74.00000000     -74.00000000     -74.00000000     -74.00000000     -74.00000000     -74.00000000     -74.00000000     -74.00000000     -74.00000000     -74.00000000     -74.00000000     -74.00000000     -74.00000000     -74.00000000     -74.00000000
       -74.00000000     -74.00000000     -68.73999786     -73.93000031     -73.93000031     -73.93000031     -73.93000031     -62.59999847    -154.09779358    -158.09959412    -162.82060242    -166.91220093    -171.73890686    -175.92190552    -180.85609436    -185.13250732    -190.17880249    -194.55799866    -199.74589539    -204.28450012
      -209.64179993    -214.24769592    -219.63800049    -224.67880249    -230.45539856    -237.73019409    -238.55540466    -242.88389587    -247.03100586    -252.33839417
       -74.00000000     -74.00000000     -74.00000000     -74.00000000     -74.00000000     -74.00000000     -74.00000000     -74.00000000     -74.00000000     -74.00000000     -74.00000000     -74.00000000     -74.00000000     -74.00000000     -74.00000000     -74.00000000     -74.00000000     -74.00000000     -74.00000000     -74.00000000
       -74.00000000     -74.00000000     -74.00000000     -74.00000000     -74.00000000     -74.00000000     -74.00000000     -74.00000000     -74.00000000     -74.00000000     -74.00000000     -74.00000000     -74.00000000     -74.00000000     -74.00000000     -74.00000000     -74.00000000     -74.00000000     -74.00000000     -74.00000000
       -74.00000000     -74.00000000     -74.00000000     -74.00000000     -74.00000000     -74.00000000     -74.00000000     -74.00000000     -74.00000000     -74.00000000     -74.00000000     -74.00000000     -74.00000000     -74.00000000     -74.00000000     -74.00000000     -74.00000000     -74.00000000     -74.00000000     -74.00000000
       -74.00000000     -74.00000000     -74.00000000     -74.00000000     -74.00000000     -74.00000000     -74.00000000     -74.00000000     -74.00000000     -74.00000000     -74.00000000     -74.00000000     -74.00000000     -74.00000000     -74.00000000     -74.00000000     -74.00000000     -74.00000000     -74.00000000     -74.00000000
       -74.00000000     -74.00000000     -74.00000000     -74.00000000     -74.00000000     -74.00000000     -74.00000000     -74.00000000     -74.00000000     -74.00000000     -74.00000000     -74.00000000     -74.00000000     -74.00000000     -74.00000000     -74.00000000     -74.00000000     -74.00000000     -74.00000000     -74.00000000
       -74.00000000     -74.00000000     -74.00000000     -74.00000000     -74.00000000     -74.00000000     -74.00000000     -74.00000000     -74.00000000     -74.00000000     -74.00000000     -74.00000000     -74.00000000     -74.00000000     -74.00000000     -74.00000000     -74.00000000     -74.00000000     -74.00000000     -74.00000000
       -74.00000000     -74.00000000     -67.29000092     -73.08999634     -73.93000031     -73.93000031     -73.93000031     -64.61000061     -37.20999908     -53.12000275     -57.05999756    -168.14030457    -173.04060364    -177.29589844    -182.32769775    -186.70179749    -191.88389587    -196.40510559    -201.80169678    -206.53179932
      -212.12910461    -217.00900269    -222.85800171    -228.69990540    -235.49169922    -243.65870667    -245.10090637    -249.75509644    -254.09599304    -259.53381348
       -74.00000000     -74.00000000     -74.00000000     -74.00000000     -74.00000000     -74.00000000     -74.00000000     -74.00000000     -74.00000000     -74.00000000     -74.00000000     -74.00000000     -74.00000000     -74.00000000     -74.00000000     -74.00000000     -74.00000000     -74.00000000     -74.00000000     -74.00000000
       -74.00000000     -74.00000000     -74.00000000     -74.00000000     -74.00000000     -74.00000000     -74.00000000     -74.00000000     -74.00000000     -74.00000000     -74.00000000     -74.00000000     -74.00000000     -74.00000000     -74.00000000     -74.00000000     -74.00000000     -74.00000000     -74.00000000     -74.00000000
       -74.00000000     -74.00000000     -74.00000000     -74.00000000     -74.00000000     -74.00000000     -74.00000000     -74.00000000     -74.00000000     -74.00000000     -74.00000000     -74.00000000     -74.00000000     -74.00000000     -74.00000000     -74.00000000     -74.00000000     -74.00000000     -74.00000000     -74.00000000
       -74.00000000     -74.00000000     -74.00000000     -74.00000000     -74.00000000     -74.00000000     -74.00000000     -74.00000000     -74.00000000     -74.00000000     -74.00000000     -74.00000000     -74.00000000     -74.00000000     -74.00000000     -74.00000000     -74.00000000     -74.00000000     -74.00000000     -74.00000000