BEGIN griddata
  strt
    INTERNAL  FACTOR  1.0
       -49.00000000     -49.00000000     -49.00000000     -49.00000000     -49.00000000     -49.00000000     -49.00000000     -49.00000000     -49.00000000     -49.00000000     -49.00000000     -49.00000000     -49.00000000     -49.00000000     -49.00000000     -49.00000000     -49.00000000     -49.00000000     -49.00000000     -49.00000000
       -49.00000000     -49.00000000     -49.00000000     -49.00000000     -49.00000000     -49.00000000     -49.00000000     -49.00000000     -49.00000000     -49.00000000     -49.00000000     -49.00000000     -49.00000000     -49.00000000     -49.00000000     -49.00000000     -49.00000000     -49.00000000     -49.00000000     -49.00000000
       -49.00000000     -49.00000000     -49.00000000     -49.00000000     -49.00000000     -49.00000000     -49.00000000     -49.00000000     -49.00000000     -49.00000000     -49.00000000     -49.00000000     -49.00000000     -49.00000000     -49.00000000     -49.00000000     -49.00000000     -49.00000000     -49.00000000     -49.00000000
       -49.00000000     -49.00000000     -49.00000000     -49.00000000     -49.00000000     -49.00000000     -49.00000000     -49.00000000     -49.00000000     -49.00000000     -49.00000000     -49.00000000     -49.00000000     -49.00000000     -49.00000000     -49.00000000     -49.00000000     -49.00000000     -49.00000000     -49.00000000
       -49.00000000     -49.00000000     -49.00000000     -49.00000000     -49.00000000     -49.00000000     -49.00000000     -49.00000000     -49.00000000     -49.00000000     -49.00000000     -49.00000000     -49.00000000     -49.00000000     -49.00000000     -49.00000000     -49.00000000     -49.00000000     -49.00000000     -49.00000000
       -49.00000000     -49.00000000     -49.00000000     -49.00000000     -49.00000000     -49.00000000     -49.00000000     -49.00000000     -49.00000000     -49.00000000     -49.00000000     -49.00000000     -49.00000000     -49.00000000     -49.00000000     -49.00000000     -49.00000000     -49.00000000     -49.00000000     -49.00000000
       -49.00000000     -49.00000000     -49.00000000     -49.00000000     -49.00000000     -49.00000000     -49.00000000     -49.00000000     -49.00000000     -49.00000000     -41.68000031     -44.38999939     -46.54000092     -47.93000031     -49.50000000     -46.15000153     -49.50000000     -48.45999908     -47.81000137     -48.50999832
       -48.56000137     -49.00000000     -49.00000000     -49.00000000     -49.00000000     -49.00000000     -49.00000000     -49.00000000     -49.00000000     -49.00000000
       -49.00000000     -49.00000000     -49.00000000     -49.00000000     -49.00000000     -49.00000000     -49.00000000     -49.00000000     -49.00000000     -49.00000000     -49.00000000     -49.00000000     -49.00000000     -49.00000000     -49.00000000     -49.00000000     -49.00000000     -49.00000000     -49.00000000     -49.00000000
       -49.00000000     -49.00000000     -49.00000000     -49.00000000     -49.00000000     -49.00000000     -49.00000000     -49.00000000     -49.00000000     -49.00000000     -49.00000000     -49.00000000     -49.00000000     -49.00000000     -49.00000000     -49.00000000     -49.00000000     -49.00000000     -49.00000000     -49.00000000
       -49.00000000     -49.00000000     -49.00000000     -49.00000000     -49.00000000     -49.00000000     -49.00000000     -49.00000000     -49.00000000     -49.00000000     -49.00000000     -49.00000000     -49.00000000     -49.00000000     -49.00000000     -49.00000000     -49.00000000     -49.00000000     -49.00000000     -49.00000000
       -49.00000000     -49.00000000     -49.00000000     -49.00000000     -49.00000000     -49.00000000     -49.00000000     -49.00000000     -49.00000000     -49.00000000     -49.00000000     -49.00000000     -49.00000000     -49.00000000     -49.00000000     -49.00000000     -49.00000000     -49.00000000     -49.00000000     -49.00000000
       -49.00000000     -49.00000000     -49.00000000     -49.00000000     -49.00000000     -49.00000000     -49.00000000     -49.00000000     -49.00000000     -49.00000000     -49.00000000     -49.00000000     -49.00000000     -49.00000000     -49.00000000     -49.00000000     -49.00000000     -49.00000000     -49.00000000     -49.00000000
       -49.00000000     -49.00000000     -49.00000000     -49.00000000     -49.00000000     -49.00000000     -49.00000000     -49.00000000     -49.00000000     -49.00000000     -49.00000000     -49.00000000     -49.00000000     -49.00000000     -49.00000000     -49.00000000     -49.00000000     -49.00000000     -49.00000000     -49.00000000
       -49.00000000     -49.00000000     -49.00000000     -49.00000000     -49.00000000     -49.00000000     -49.00000000     -49.00000000     -49.00000000     -49.00000000     -41.84999847     -44.83000183     -46.59999847     -46.93000031     -48.81999969     -49.50000000     -49.50000000     -49.11000061     -48.22999954     -48.77000046
       -48.31999969     -49.00000000     -49.00000000     -49.00000000     -49.00000000     -49.00000000     -49.00000000     -49.00000000     -49.00000000     -49.00000000
       -49.00000000     -49.00000000     -49.00000000     -49.00000000     -49.00000000     -49.00000000     -49.00000000     -49.00000000     -49.00000000     -49.00000000     -49.00000000     -49.00000000     -49.00000000     -49.00000000     -49.00000000     -49.00000000     -49.00000000     -49.00000000     -49.00000000     -49.00000000
       -49.00000000     -49.00000000     -49.00000000     -49.00000000     -49.00000000     -49.00000000     -49.00000000     -49.00000000     -49.00000000     -49.00000000     -49.00000000     -49.00000000     -49.00000000     -49.00000000     -49.00000000     -49.00000000     -49.00000000     -49.00000000     -49.00000000     -49.00000000
       -49.00000000     -49.00000000     -49.00000000     -49.00000000     -49.00000000     -49.00000000     -49.00000000     -49.00000000     -49.00000000     -49.00000000     -49.00000000     -49.00000000     -49.00000000     -49.00000000     -49.00000000     -49.00000000     -49.00000000     -49.00000000     -49.00000000     -49.00000000
       -49.00000000     -49.00000000     -49.00000000     -49.00000000     -49.00000000     -49.00000000     -49.00000000     -49.00000000     -49.00000000     -49.00000000     -49.00000000     -49.00000000     -49.00000000     -49.00000000     -49.00000000     -49.00000000     -49.00000000     -49.00000000     -49.00000000     -49.00000000
       -49.00000000     -49.00000000     -49.00000000     -49.00000000     -49.00000000     -49.00000000     -49.00000000     -49.00000000     -49.00000000     -49.00000000     -49.00000000     -49.00000000     -49.00000000     -49.00000000     -49.00000000     -49.00000000     -49.00000000     -49.00000000     -49.00000000     -49.00000000
       -49.00000000     -49.00000000     -49.00000000     -49.00000000     -49.00000000     -49.00000000     -49.00000000     -49.00000000     -49.00000000     -49.00000000     -49.00000000     -49.00000000     -49.00000000     -49.00000000     -49.00000000     -49.00000000     -49.00000000     -49.00000000     -49.00000000     -49.00000000
       -49.00000000     -49.00000000     -49.00000000     -49.00000000     -49.00000000     -49.00000000     -49.00000000     -49.00000000     -49.00000000     -49.00000000     -41.23999786     -44.81000137     -47.45999908     -48.22999954     -46.61000061     -48.27000046     -47.50000000     -46.91999817     -47.61999893     -49.50000000
       -48.04999924     -49.00000000     -49.00000000     -49.00000000     -49.00000000     -49.00000000     -49.00000000     -49.00000000     -49.00000000     -49.00000000
       -49.00000000     -49.00000000     -49.00000000     -49.00000000     -49.00000000     -49.00000000     -49.00000000     -49.00000000     -49.00000000     -49.00000000     -49.00000000     -49.00000000     -49.00000000     -49.00000000     -49.00000000     -49.00000000     -49.00000000     -49.00000000     -49.00000000     -49.00000000
       -49.00000000     -49.00000000     -49.00000000     -49.00000000     -49.00000000     -49.00000000     -49.00000000     -49.00000000     -49.00000000     -49.00000000     -49.00000000     -49.00000000     -49.00000000     -49.00000000     -49.00000000     -49.00000000     -49.00000000     -49.00000000     -49.00000000     -49.00000000
       -49.00000000     -49.00000000     -49.00000000     -49.00000000     -49.00000000     -49.00000000     -49.00000000     -49.00000000     -49.00000000     -49.00000000     -49.00000000     -49.00000000     -49.00000000     -49.00000000     -49.00000000     -49.00000000     -49.00000000     -49.00000000     -49.00000000     -49.00000000
       -49.00000000     -49.00000000     -49.00000000     -49.00000000     -49.00000000     -49.00000000     -49.00000000     -49.00000000     -49.00000000     -49.00000000     -49.00000000     -49.00000000     -49.00000000     -49.00000000     -49.00000000     -49.00000000     -49.00000000     -49.00000000     -49.00000000     -49.00000000
       -49.00000000     -49.00000000     -49.00000000     -49.00000000     -49.00000000     -49.00000000     -49.00000000     -49.00000000     -49.00000000     -49.00000000     -49.00000000     -49.00000000     -49.00000000     -49.00000000     -49.00000000     -49.00000000     -49.00000000     -49.00000000     -49.00000000     -49.00000000
       -49.00000000     -49.00000000     -49.00000000     -49.00000000     -49.00000000     -49.00000000     -49.00000000     -49.00000000     -49.00000000     -49.00000000     -49.00000000     -49.00000000     -49.00000000     -49.00000000     -49.00000000     -49.00000000     -49.00000000     -49.00000000     -49.00000000     -49.00000000
       -49.00000000     -49.00000000     -49.00000000     -49.00000000     -49.00000000     -49.00000000     -49.00000000     -49.00000000     -49.00000000     -49.00000000     -42.18000031     -45.40000153     -46.66999817     -45.90000153     -33.11000061     -28.52000046     -19.46999931     -11.25000000      -3.25999832     -46.34999847
       -48.56000137     -49.00000000     -49.00000000     -49.00000000     -49.00000000     -49.00000000     -49.00000000     -49.00000000     -49.00000000     -49.00000000
       -49.00000000     -49.00000000     -49.00000000     -49.00000000     -49.00000000     -49.00000000     -49.00000000     -49.00000000     -49.00000000     -49.00000000     -49.00000000     -49.00000000     -49.00000000     -49.00000000     -49.00000000     -49.00000000     -49.00000000     -49.00000000     -49.00000000     -49.00000000
       -49.00000000     -49.00000000     -49.00000000     -49.00000000     -49.00000000     -49.00000000     -49.00000000     -49.00000000     -49.00000000     -49.00000000     -49.00000000     -49.00000000     -49.00000000     -49.00000000     -49.00000000     -49.00000000     -49.00000000     -49.00000000     -49.00000000     -49.00000000
       -49.00000000     -49.00000000     -49.00000000     -49.00000000     -49.00000000     -49.00000000     -49.00000000     -49.00000000     -49.00000000     -49.00000000     -49.00000000     -49.00000000     -49.00000000     -49.00000000     -49.00000000     -49.00000000     -49.00000000     -49.00000000     -49.00000000     -49.00000000
       -49.00000000     -49.00000000     -49.00000000     -49.00000000     -49.00000000     -49.00000000     -49.00000000     -49.00000000     -49.00000000     -49.00000000     -49.00000000     -49.00000000     -49.00000000     -49.00000000     -49.00000000     -49.00000000     -49.00000000     -49.00000000     -49.00000000     -49.00000000
       -49.00000000     -49.00000000     -49.00000000     -49.00000000     -49.00000000     -49.00000000     -49.00000000     -49.00000000     -49.00000000     -49.00000000     -49.00000000     -49.00000000     -49.00000000     -49.00000000     -49.00000000     -49.00000000     -49.00000000     -49.00000000     -49.00000000     -49.00000000
       -49.00000000     -49.00000000     -49.00000000     -49.00000000     -49.00000000     -49.00000000     -49.00000000     -49.00000000     -49.00000000     -49.00000000     -49.00000000     -49.00000000     -49.00000000     -49.00000000     -49.00000000     -49.00000000     -49.00000000     -49.00000000     -49.00000000     -49.00000000
       -49.00000000     -49.00000000     -49.00000000     -49.00000000     -49.00000000     -49.00000000     -49.00000000     -49.00000000     -49.00000000     -49.00000000     -43.93000031     -46.45999908     -47.97000122     -37.81000137     -15.34999847     -11.02999878     -10.02999878      -5.40999985      -3.41999817       2.56000137
       -16.04999924    -137.46380615     -49.00000000     -49.00000000     -49.00000000     -49.00000000     -49.00000000     -49.00000000     -49.00000000     -49.00000000
       -49.00000000     -49.00000000     -49.00000000     -49.00000000     -49.00000000     -49.00000000     -49.00000000     -49.00000000     -49.00000000     -49.00000000     -49.00000000     -49.00000000     -49.00000000     -49.00000000     -49.00000000     -49.00000000     -49.00000000     -49.00000000     -49.00000000     -49.00000000
       -49.00000000     -49.00000000     -49.00000000     -49.00000000     -49.00000000     -49.00000000     -49.00000000     -49.00000000     -49.00000000     -49.00000000     -49.00000000     -49.00000000     -49.00000000     -49.00000000     -49.00000000     -49.00000000     -49.00000000     -49.00000000     -49.00000000     -49.00000000
       -49.00000000     -49.00000000     -49.00000000     -49.00000000     -49.00000000     -49.00000000     -49.00000000     -49.00000000     -49.00000000     -49.00000000     -49.00000000     -49.00000000     -49.00000000     -49.00000000     -49.00000000     -49.00000000     -49.00000000     -49.00000000     -49.00000000     -49.00000000
       -49.00000000     -49.00000000     -49.00000000     -49.00000000     -49.00000000     -49.00000000     -49.00000000     -49.00000000     -49.00000000     -49.00000000     -49.00000000     -49.00000000     -49.00000000     -49.00000000     -49.00000000     -49.00000000     -49.00000000     -49.00000000     -49.00000000     -49.00000000
       -49.00000000     -49.00000000     -49.00000000     -49.00000000     -49.00000000     -49.00000000     -49.00000000     -49.00000000     -49.00000000     -49.00000000     -49.00000000     -49.00000000     -49.00000000     -49.00000000     -49.00000000     -49.00000000     -49.00000000     -49.00000000     -49.00000000     -49.00000000
       -49.00000000     -49.00000000     -49.00000000     -49.00000000     -49.00000000     -49.00000000     -49.00000000     -49.00000000     -49.00000000     -49.00000000     -49.00000000     -49.00000000     -49.00000000     -49.00000000     -49.00000000     -49.00000000     -49.00000000     -49.00000000     -49.00000000     -49.00000000
       -49.00000000     -49.00000000     -49.00000000     -49.00000000     -49.00000000     -49.00000000     -49.00000000     -49.00000000     -49.00000000     -49.00000000     -42.73999786     -47.13000107     -48.88999939     -48.93000031     -39.86000061     -10.90999985      -9.50000000     -10.84999847      -8.50000000    -135.29389954
      -132.00430298    -128.27569580    -124.61830139    -118.52780151     -49.00000000     -49.00000000     -49.00000000     -49.00000000     -97.85025787    -107.11160278
       -49.00000000     -49.00000000     -49.00000000     -49.00000000     -49.00000000     -49.00000000     -49.00000000     -49.00000000     -49.00000000     -49.00000000     -49.00000000     -49.00000000     -49.00000000     -49.00000000     -49.00000000     -49.00000000     -49.00000000     -49.00000000     -49.00000000     -49.00000000
       -49.00000000     -49.00000000     -49.00000000     -49.00000000     -49.00000000     -49.00000000     -49.00000000     -49.00000000     -49.00000000     -49.00000000     -49.00000000     -49.00000000     -49.00000000     -49.00000000     -49.00000000     -49.00000000     -49.00000000     -49.00000000     -49.00000000     -49.00000000
       -49.00000000     -49.00000000     -49.00000000     -49.00000000     -49.00000000     -49.00000000     -49.00000000     -49.00000000     -49.00000000     -49.00000000     -49.00000000     -49.00000000     -49.00000000     -49.00000000     -49.00000000     -49.00000000     -49.00000000     -49.00000000     -49.00000000     -49.00000000
       -49.00000000     -49.00000000     -49.00000000     -49.00000000     -49.00000000     -49.00000000     -49.00000000     -49.00000000     -49.00000000     -49.00000000     -49.00000000     -49.00000000     -49.00000000     -49.00000000     -49.00000000     -49.00000000     -49.00000000     -49.00000000     -49.00000000     -49.00000000
       -49.00000000     -49.00000000     -49.00000000     -49.00000000     -49.00000000     -49.00000000     -49.00000000     -49.00000000     -49.00000000     -49.00000000     -49.00000000     -49.00000000     -49.00000000     -49.00000000     -49.00000000     -49.00000000     -49.00000000     -49.00000000     -49.00000000     -49.00000000
       -49.00000000     -49.00000000     -49.00000000     -49.00000000     -49.00000000     -49.00000000     -49.00000000     -49.00000000     -49.00000000     -49.00000000     -49.00000000     -49.00000000     -49.00000000     -49.00000000     -49.00000000     -49.00000000     -49.00000000     -49.00000000     -49.00000000     -49.00000000
       -49.00000000     -49.00000000     -49.00000000     -49.00000000     -49.00000000     -49.00000000     -49.00000000     -49.00000000     -49.00000000     -49.00000000     -42.48999786     -46.75000000     -48.93000031     -48.93000031     -37.40000153      -7.65999985      -0.90999985    -134.64089966    -131.39810181    -128.26510620
      -124.68849945    -119.96679688    -114.86280060    -109.82350159    -104.31079865     -49.00000000     -94.29138947     -90.39050293     -90.52036285    -105.72679901
       -49.00000000     -49.00000000     -49.00000000     -49.00000000     -49.00000000     -49.00000000     -49.00000000     -49.00000000     -49.00000000     -49.00000000     -49.00000000     -49.00000000     -49.00000000     -49.00000000     -49.00000000     -49.00000000     -49.00000000     -49.00000000     -49.00000000     -49.00000000
       -49.00000000     -49.00000000     -49.00000000     -49.00000000     -49.00000000     -49.00000000     -49.00000000     -49.00000000     -49.00000000     -49.00000000     -49.00000000     -49.00000000     -49.00000000     -49.00000000     -49.00000000     -49.00000000     -49.00000000     -49.00000000     -49.00000000     -49.00000000
       -49.00000000     -49.00000000     -49.00000000     -49.00000000     -49.00000000     -49.00000000     -49.00000000     -49.00000000     -49.00000000     -49.00000000     -49.00000000     -49.00000000     -49.00000000     -49.00000000     -49.00000000     -49.00000000     -49.00000000     -49.00000000     -49.00000000     -49.00000000
       -49.00000000     -49.00000000     -49.00000000     -49.00000000     -49.00000000     -49.00000000     -49.00000000     -49.00000000     -49.00000000     -49.00000000     -49.00000000     -49.00000000     -49.00000000     -49.00000000     -49.00000000     -49.00000000     -49.00000000     -49.00000000     -49.00000000     -49.00000000
       -49.00000000     -49.00000000     -49.00000000     -49.00000000     -49.00000000     -49.00000000     -49.00000000     -49.00000000     -49.00000000     -49.00000000     -49.00000000     -49.00000000     -49.00000000     -49.00000000     -49.00000000     -49.00000000     -49.00000000     -49.00000000     -49.00000000     -49.00000000
       -49.00000000     -49.00000000     -49.00000000     -49.00000000     -49.00000000     -49.00000000     -49.00000000     -49.00000000     -49.00000000     -49.00000000     -49.00000000     -49.00000000     -49.00000000     -49.00000000     -49.00000000     -49.00000000     -49.00000000     -49.00000000     -49.00000000     -49.00000000
       -49.00000000     -49.00000000     -49.00000000     -49.00000000     -49.00000000     -49.00000000     -49.00000000     -49.00000000     -49.00000000     -49.00000000     -44.08000183     -46.36999893     -48.93000031     -48.93000031     -48.93000031      -5.93999863    -130.70419312    -127.55549622    -124.61710358    -121.23040009
      -116.76119995    -111.92179871    -106.80300140    -101.56559753     -95.77912903     -89.78431702     -84.35328674     -80.46646881     -88.62129974    -104.94750214
       -49.00000000     -49.00000000     -49.00000000     -49.00000000     -49.00000000     -49.00000000     -49.00000000     -49.00000000     -49.00000000     -49.00000000     -49.00000000     -49.00000000     -49.00000000     -49.00000000     -49.00000000     -49.00000000     -49.00000000     -49.00000000     -49.00000000     -49.00000000
       -49.00000000     -49.00000000     -49.00000000     -49.00000000     -49.00000000     -49.00000000     -49.00000000     -49.00000000     -49.00000000     -49.00000000     -49.00000000     -49.00000000     -49.00000000     -49.00000000     -49.00000000     -49.00000000     -49.00000000     -49.00000000     -49.00000000     -49.00000000
       -49.00000000     -49.00000000     -49.00000000     -49.00000000     -49.00000000     -49.00000000     -49.00000000     -49.00000000     -49.00000000     -49.00000000     -49.00000000     -49.00000000     -49.00000000     -49.00000000     -49.00000000     -49.00000000     -49.00000000     -49.00000000     -49.00000000     -49.00000000
       -49.00000000     -49.00000000     -49.00000000     -49.00000000     -49.00000000     -49.00000000     -49.00000000     -49.00000000     -49.00000000     -49.00000000     -49.00000000     -49.00000000     -49.00000000     -49.00000000     -49.00000000     -49.00000000     -49.00000000     -49.00000000     -49.00000000     -49.00000000
       -49.00000000     -49.00000000     -49.00000000     -49.00000000     -49.00000000     -49.00000000     -49.00000000     -49.00000000     -49.00000000     -49.00000000     -49.00000000     -49.00000000     -49.00000000     -49.00000000     -49.00000000     -49.00000000     -49.00000000     -49.00000000     -49.00000000     -49.00000000
       -49.00000000     -49.00000000     -49.00000000     -49.00000000     -49.00000000     -49.00000000     -49.00000000     -49.00000000     -49.00000000     -49.00000000     -49.00000000     -49.00000000     -49.00000000     -49.00000000     -49.00000000     -49.00000000     -49.00000000     -49.00000000     -49.00000000     -49.00000000
       -49.00000000     -49.00000000     -49.00000000     -49.00000000     -49.00000000     -49.00000000     -49.00000000     -49.00000000     -49.00000000     -49.00000000     -46.09000015     -48.93000031     -48.93000031     -48.93000031     -48.93000031     -34.47999954    -122.82659912    -120.16829681    -116.91139984    -112.73639679
      -108.31310272    -103.62920380     -98.62262726     -93.17240906     -87.14321899     -80.49413300     -73.37513733     -71.15490723     -88.22763824    -105.68260193
       -49.00000000     -49.00000000     -49.00000000     -49.00000000     -49.00000000     -49.00000000     -49.00000000     -49.00000000     -49.00000000     -49.00000000     -49.00000000     -49.00000000     -49.00000000     -49.00000000     -49.00000000     -49.00000000     -49.00000000     -49.00000000     -49.00000000     -49.00000000
       -49.00000000     -49.00000000     -49.00000000     -49.00000000     -49.00000000     -49.00000000     -49.00000000     -49.00000000     -49.00000000     -49.00000000     -49.00000000     -49.00000000     -49.00000000     -49.00000000     -49.00000000     -49.00000000     -49.00000000     -49.00000000     -49.00000000     -49.00000000
       -49.00000000     -49.00000000     -49.00000000     -49.00000000     -49.00000000     -49.00000000     -49.00000000     -49.00000000     -49.00000000     -49.00000000     -49.00000000     -49.00000000     -49.00000000     -49.00000000     -49.00000000     -49.00000000     -49.00000000     -49.00000000     -49.00000000     -49.00000000
       -49.00000000     -49.00000000     -49.00000000     -49.00000000     -49.00000000     -49.00000000     -49.00000000     -49.00000000     -49.00000000     -49.00000000     -49.00000000     -49.00000000     -49.00000000     -49.00000000     -49.00000000     -49.00000000     -49.00000000     -49.00000000     -49.00000000     -49.00000000
       -49.00000000     -49.00000000     -49.00000000     -49.00000000     -49.00000000     -49.00000000     -49.00000000     -49.00000000     -49.00000000     -49.00000000     -49.00000000     -49.00000000     -49.00000000     -49.00000000     -49.00000000     -49.00000000     -49.00000000     -49.00000000     -49.00000000     -49.00000000
       -49.00000000     -49.00000000     -49.00000000     -49.00000000     -49.00000000     -49.00000000     -49.00000000     -49.00000000     -49.00000000     -49.00000000     -49.00000000     -49.00000000     -49.00000000     -49.00000000     -49.00000000     -49.00000000     -49.00000000     -49.00000000     -49.00000000     -49.00000000
       -49.00000000     -49.00000000     -49.00000000     -49.00000000     -49.00000000     -49.00000000     -49.00000000     -49.00000000     -49.00000000     -49.00000000     -43.73999786     -48.93000031     -48.93000031     -48.93000031     -48.93000031     -42.06000137     -11.88999939    -113.74160004    -109.94680023    -105.97760010
      -101.81559753     -97.41416168     -92.71410370     -87.45369720     -81.75720215     -75.48307037     -68.77174377     -75.38713837     -92.05225372    -109.12599945
       -49.00000000     -49.00000000     -49.00000000     -49.00000000     -49.00000000     -49.00000000     -49.00000000     -49.00000000     -49.00000000     -49.00000000     -49.00000000     -49.00000000     -49.00000000     -49.00000000     -49.00000000     -49.00000000     -49.00000000     -49.00000000     -49.00000000     -49.00000000
       -49.00000000     -49.00000000     -49.00000000     -49.00000000     -49.00000000     -49.00000000     -49.00000000     -49.00000000     -49.00000000     -49.00000000     -49.00000000     -49.00000000     -49.00000000     -49.00000000     -49.00000000     -49.00000000     -49.00000000     -49.00000000     -49.00000000     -49.00000000
       -49.00000000     -49.00000000     -49.00000000     -49.00000000     -49.00000000     -49.00000000     -49.00000000     -49.00000000     -49.00000000     -49.00000000     -49.00000000     -49.00000000     -49.00000000     -49.00000000     -49.00000000     -49.00000000     -49.00000000     -49.00000000     -49.00000000     -49.00000000
       -49.00000000     -49.00000000     -49.00000000     -49.00000000     -49.00000000     -49.00000000     -49.00000000     -49.00000000     -49.00000000     -49.00000000     -49.00000000     -49.00000000     -49.00000000     -49.00000000     -49.00000000     -49.00000000     -49.00000000     -49.00000000     -49.00000000     -49.00000000
       -49.00000000     -49.00000000     -49.00000000     -49.00000000     -49.00000000     -49.00000000     -49.00000000     -49.00000000     -49.00000000     -49.00000000     -49.00000000     -49.00000000     -49.00000000     -49.00000000     -49.00000000     -49.00000000     -49.00000000     -49.00000000     -49.00000000     -49.00000000
       -49.00000000     -49.00000000     -49.00000000     -49.00000000     -49.00000000     -49.00000000     -49.00000000     -49.00000000     -49.00000000     -49.00000000     -49.00000000     -49.00000000     -49.00000000     -49.00000000     -49.00000000     -49.00000000     -49.00000000     -49.00000000     -49.00000000     -49.00000000
       -49.00000000     -49.00000000     -49.00000000     -49.00000000     -49.00000000     -49.00000000     -49.00000000     -49.00000000     -49.00000000     -49.00000000     -42.29000092     -48.09000015     -48.93000031     -48.93000031     -48.93000031     -48.65999985      -7.95999908     -19.38999939     -27.87999916     -99.99700165
       -96.18300629     -92.17207336     -87.92233276     -83.12985992     -78.15899658     -73.17769623     -74.58860016     -84.10408020     -99.49710083    -115.69020081
       -49.00000000     -49.00000000     -49.00000000     -49.00000000     -49.00000000     -49.00000000     -49.00000000     -49.00000000     -49.00000000     -49.00000000     -49.00000000     -49.00000000     -49.00000000     -49.00000000     -49.00000000     -49.00000000     -49.00000000     -49.00000000     -49.00000000     -49.00000000
       -49.00000000     -49.00000000     -49.00000000     -49.00000000     -49.00000000     -49.00000000     -49.00000000     -49.00000000     -49.00000000     -49.00000000     -49.00000000     -49.00000000     -49.00000000     -49.00000000     -49.00000000     -49.00000000     -49.00000000     -49.00000000     -49.00000000     -49.00000000
       -49.00000000     -49.00000000     -49.00000000     -49.00000000     -49.00000000     -49.00000000     -49.00000000     -49.00000000     -49.00000000     -49.00000000     -49.00000000     -49.00000000     -49.00000000     -49.00000000     -49.00000000     -49.00000000     -49.00000000     -49.00000000     -49.00000000     -49.00000000
       -49.00000000     -49.00000000     -49.00000000     -49.00000000     -49.00000000     -49.00000000     -49.00000000     -49.00000000     -49.00000000     -49.00000000     -49.00000000     -49.00000000     -49.00000000     -49.00000000     -49.00000000     -49.00000000     -49.00000000     -49.00000000     -49.00000000     -49.00000000