BEGIN options
END options

BEGIN packages
  CHD6  Bol.chd  bol
  CHD6  Tech.chd  tech
  CHD6  Cant.chd  cant
  CHD6  Rea.chd  rea
  CHD6  Tet.chd  tet
  CHD6  agy.chd  agy
  DRN6  first_2D.drn  drn
  CHD6  eta.chd  eta
  CHD6  sea.chd  sea
  WEL6  first_2D.wel  wel
  RCH6  first_2D.rcha  rcha
  OC6  first_2D.oc  oc
  IC6  first_2D.ic  ic
  DIS6  first_2D.dis  dis
  NPF6  first_2D.npf  npf
END packages

