BEGIN griddata
  strt
    INTERNAL  FACTOR  1.0
       -99.00000000     -99.00000000     -99.00000000     -99.00000000     -99.00000000     -99.00000000     -99.00000000     -99.00000000     -99.00000000     -99.00000000     -99.00000000     -99.00000000     -99.00000000     -99.00000000     -99.00000000     -99.00000000     -99.00000000     -99.00000000     -99.00000000     -99.00000000
       -99.00000000     -99.00000000     -99.00000000     -99.00000000     -99.00000000     -99.00000000     -99.00000000     -99.00000000     -99.00000000     -99.00000000     -99.00000000     -99.00000000     -99.00000000     -99.00000000     -99.00000000     -99.00000000     -99.00000000     -99.00000000     -99.00000000     -99.00000000
       -99.00000000     -99.00000000     -99.00000000     -99.00000000     -99.00000000     -99.00000000     -99.00000000     -99.00000000     -99.00000000     -99.00000000     -99.00000000     -99.00000000     -99.00000000     -99.00000000     -99.00000000     -99.00000000     -99.00000000     -99.00000000     -99.00000000     -99.00000000
       -99.00000000     -99.00000000     -99.00000000     -99.00000000     -99.00000000     -99.00000000     -99.00000000     -99.00000000     -99.00000000     -99.00000000     -99.00000000     -99.00000000     -99.00000000     -99.00000000     -99.00000000     -99.00000000     -99.00000000     -99.00000000     -99.00000000     -99.00000000
       -99.00000000     -99.00000000     -95.05999756     -97.62999725     -99.50000000     -98.69000244     -97.87999725     -98.50000000     -99.00000000     -99.00000000     -99.00000000     -99.00000000     -99.00000000     -99.00000000     -99.00000000     -99.00000000     -99.00000000     -99.00000000     -99.00000000     -99.00000000
       -99.00000000     -99.00000000     -99.00000000     -99.00000000     -99.00000000     -99.00000000     -99.00000000     -99.00000000     -99.00000000     -99.00000000     -99.00000000     -99.00000000     -99.00000000     -99.00000000     -99.00000000     -99.00000000     -99.00000000     -99.00000000     -99.00000000     -99.00000000
       -99.00000000     -99.00000000     -99.00000000     -99.00000000     -99.00000000     -99.00000000     -99.00000000     -99.00000000     -99.00000000     -99.00000000     -99.00000000     -99.00000000     -99.00000000     -99.00000000     -99.00000000     -99.00000000     -99.00000000     -99.00000000     -99.00000000     -99.00000000
       -99.00000000     -99.00000000     -99.00000000     -99.00000000     -99.00000000     -99.00000000     -99.00000000     -99.00000000     -99.00000000     -99.00000000     -99.00000000     -99.00000000     -99.00000000     -99.00000000     -99.00000000     -99.00000000     -99.00000000     -99.00000000     -99.00000000     -99.00000000
       -99.00000000     -99.00000000     -99.00000000     -99.00000000     -99.00000000     -99.00000000     -99.00000000     -99.00000000     -99.00000000     -99.00000000     -99.00000000     -99.00000000     -99.00000000     -99.00000000     -99.00000000     -99.00000000     -99.00000000     -99.00000000     -99.00000000     -99.00000000
       -99.00000000     -99.00000000     -95.50000000     -98.05000305     -98.59999847     -97.83999634     -96.93000031     -98.79000092     -99.00000000     -99.00000000     -99.00000000     -99.00000000     -99.00000000     -99.00000000     -99.00000000     -99.00000000     -99.00000000     -99.00000000     -99.00000000     -99.00000000
       -99.00000000     -99.00000000     -99.00000000     -99.00000000     -99.00000000     -99.00000000     -99.00000000     -99.00000000     -99.00000000     -99.00000000     -99.00000000     -99.00000000     -99.00000000     -99.00000000     -99.00000000     -99.00000000     -99.00000000     -99.00000000     -99.00000000     -99.00000000
       -99.00000000     -99.00000000     -99.00000000     -99.00000000     -99.00000000     -99.00000000     -99.00000000     -99.00000000     -99.00000000     -99.00000000     -99.00000000     -99.00000000     -99.00000000     -99.00000000     -99.00000000     -99.00000000     -99.00000000     -99.00000000     -99.00000000     -99.00000000
       -99.00000000     -99.00000000     -99.00000000     -99.00000000     -99.00000000     -99.00000000     -99.00000000     -99.00000000     -99.00000000     -99.00000000     -99.00000000     -99.00000000     -99.00000000     -99.00000000     -99.00000000     -99.00000000     -99.00000000     -99.00000000     -99.00000000     -99.00000000
       -99.00000000     -99.00000000     -99.00000000     -99.00000000     -99.00000000     -99.00000000     -99.00000000     -99.00000000     -99.00000000     -99.00000000     -99.00000000     -99.00000000     -99.00000000     -99.00000000     -99.00000000     -99.00000000     -99.00000000     -99.00000000     -99.00000000     -99.00000000
       -99.00000000     -99.00000000     -96.18000031     -95.41999817     -67.08000183     -62.02999878     -51.45999908     -96.26000214     -99.00000000     -99.00000000     -99.00000000     -99.00000000     -99.00000000     -99.00000000     -99.00000000     -99.00000000     -99.00000000     -99.00000000     -99.00000000     -99.00000000
       -99.00000000     -99.00000000     -99.00000000     -99.00000000     -99.00000000     -99.00000000     -99.00000000     -99.00000000     -99.00000000     -99.00000000     -99.00000000     -99.00000000     -99.00000000     -99.00000000     -99.00000000     -99.00000000     -99.00000000     -99.00000000     -99.00000000     -99.00000000
       -99.00000000     -99.00000000     -99.00000000     -99.00000000     -99.00000000     -99.00000000     -99.00000000     -99.00000000     -99.00000000     -99.00000000     -99.00000000     -99.00000000     -99.00000000     -99.00000000     -99.00000000     -99.00000000     -99.00000000     -99.00000000     -99.00000000     -99.00000000
       -99.00000000     -99.00000000     -99.00000000     -99.00000000     -99.00000000     -99.00000000     -99.00000000     -99.00000000     -99.00000000     -99.00000000     -99.00000000     -99.00000000     -99.00000000     -99.00000000     -99.00000000     -99.00000000     -99.00000000     -99.00000000     -99.00000000     -99.00000000
       -99.00000000     -99.00000000     -99.00000000     -99.00000000     -99.00000000     -99.00000000     -99.00000000     -99.00000000     -99.00000000     -99.00000000     -99.00000000     -99.00000000     -99.00000000     -99.00000000     -99.00000000     -99.00000000     -99.00000000     -99.00000000     -99.00000000     -99.00000000
       -99.00000000     -99.00000000     -98.05000305     -98.93000031     -61.43999863     -59.77999878     -59.38999939     -49.29999924     -46.16999817     -48.75000000     -99.00000000     -99.00000000     -99.00000000     -99.00000000     -99.00000000     -99.00000000     -99.00000000     -99.00000000     -99.00000000     -99.00000000
       -99.00000000     -99.00000000     -99.00000000     -99.00000000     -99.00000000     -99.00000000     -99.00000000     -99.00000000     -99.00000000     -99.00000000     -99.00000000     -99.00000000     -99.00000000     -99.00000000     -99.00000000     -99.00000000     -99.00000000     -99.00000000     -99.00000000     -99.00000000
       -99.00000000     -99.00000000     -99.00000000     -99.00000000     -99.00000000     -99.00000000     -99.00000000     -99.00000000     -99.00000000     -99.00000000     -99.00000000     -99.00000000     -99.00000000     -99.00000000     -99.00000000     -99.00000000     -99.00000000     -99.00000000     -99.00000000     -99.00000000
       -99.00000000     -99.00000000     -99.00000000     -99.00000000     -99.00000000     -99.00000000     -99.00000000     -99.00000000     -99.00000000     -99.00000000     -99.00000000     -99.00000000     -99.00000000     -99.00000000     -99.00000000     -99.00000000     -99.00000000     -99.00000000     -99.00000000     -99.00000000
       -99.00000000     -99.00000000     -99.00000000     -99.00000000     -99.00000000     -99.00000000     -99.00000000     -99.00000000     -99.00000000     -99.00000000     -99.00000000     -99.00000000     -99.00000000     -99.00000000     -99.00000000     -99.00000000     -99.00000000     -99.00000000     -99.00000000     -99.00000000
       -99.00000000     -99.00000000     -97.69999695     -98.93000031     -59.29999924     -51.06999969     -46.59999847     -47.77999878     -48.02999878     -55.65999985     -54.43999863     -99.00000000     -99.00000000     -99.00000000     -99.00000000     -99.00000000     -99.00000000     -99.00000000     -99.00000000     -99.00000000
       -99.00000000     -99.00000000     -99.00000000     -99.00000000     -99.00000000     -99.00000000     -99.00000000     -99.00000000     -99.00000000     -99.00000000     -99.00000000     -99.00000000     -99.00000000     -99.00000000     -99.00000000     -99.00000000     -99.00000000     -99.00000000     -99.00000000     -99.00000000
       -99.00000000     -99.00000000     -99.00000000     -99.00000000     -99.00000000     -99.00000000     -99.00000000     -99.00000000     -99.00000000     -99.00000000     -99.00000000     -99.00000000     -99.00000000     -99.00000000     -99.00000000     -99.00000000     -99.00000000     -99.00000000     -99.00000000     -99.00000000
       -99.00000000     -99.00000000     -99.00000000     -99.00000000     -99.00000000     -99.00000000     -99.00000000     -99.00000000     -99.00000000     -99.00000000     -99.00000000     -99.00000000     -99.00000000     -99.00000000     -99.00000000     -99.00000000     -99.00000000     -99.00000000     -99.00000000     -99.00000000
       -99.00000000     -99.00000000     -99.00000000     -99.00000000     -99.00000000     -99.00000000     -99.00000000     -99.00000000     -99.00000000     -99.00000000     -99.00000000     -99.00000000     -99.00000000     -99.00000000     -99.00000000     -99.00000000     -99.00000000     -99.00000000     -99.00000000     -99.00000000
       -99.00000000     -99.00000000     -98.93000031     -98.93000031     -98.93000031     -51.45999908     -53.18999863     -54.91999817     -46.02999878     -49.95999908     -52.06999969     -59.75000000     -99.00000000     -99.00000000     -99.00000000     -99.00000000     -99.00000000     -99.00000000     -99.00000000     -99.00000000
       -99.00000000     -99.00000000     -99.00000000     -99.00000000     -99.00000000     -99.00000000     -99.00000000     -99.00000000     -99.00000000     -99.00000000     -99.00000000     -99.00000000     -99.00000000     -99.00000000     -99.00000000     -99.00000000     -99.00000000     -99.00000000     -99.00000000     -99.00000000
       -99.00000000     -99.00000000     -99.00000000     -99.00000000     -99.00000000     -99.00000000     -99.00000000     -99.00000000     -99.00000000     -99.00000000     -99.00000000     -99.00000000     -99.00000000     -99.00000000     -99.00000000     -99.00000000     -99.00000000     -99.00000000     -99.00000000     -99.00000000
       -99.00000000     -99.00000000     -99.00000000     -99.00000000     -99.00000000     -99.00000000     -99.00000000     -99.00000000     -99.00000000     -99.00000000     -99.00000000     -99.00000000     -99.00000000     -99.00000000     -99.00000000     -99.00000000     -99.00000000     -99.00000000     -99.00000000     -99.00000000
       -99.00000000     -99.00000000     -99.00000000     -99.00000000     -99.00000000     -99.00000000     -99.00000000     -99.00000000     -99.00000000     -99.00000000     -99.00000000     -99.00000000     -99.00000000     -99.00000000     -99.00000000     -99.00000000     -99.00000000     -99.00000000     -99.00000000     -99.00000000
       -99.00000000     -99.00000000     -99.05000305     -98.93000031     -98.93000031     -70.05999756     -62.15999985     -58.09000015     -63.31999969     -59.84999847     -68.23999786     -99.00000000     -99.00000000     -99.00000000     -99.00000000     -99.00000000     -99.00000000     -99.00000000     -99.00000000     -99.00000000
       -99.00000000     -99.00000000     -99.00000000     -99.00000000     -99.00000000     -99.00000000     -99.00000000     -99.00000000     -99.00000000     -99.00000000     -99.00000000     -99.00000000     -99.00000000     -99.00000000     -99.00000000     -99.00000000     -99.00000000     -99.00000000     -99.00000000     -99.00000000
       -99.00000000     -99.00000000     -99.00000000     -99.00000000     -99.00000000     -99.00000000     -99.00000000     -99.00000000     -99.00000000     -99.00000000     -99.00000000     -99.00000000     -99.00000000     -99.00000000     -99.00000000     -99.00000000     -99.00000000     -99.00000000     -99.00000000     -99.00000000
       -99.00000000     -99.00000000     -99.00000000     -99.00000000     -99.00000000     -99.00000000     -99.00000000     -99.00000000     -99.00000000     -99.00000000     -99.00000000     -99.00000000     -99.00000000     -99.00000000     -99.00000000     -99.00000000     -99.00000000     -99.00000000     -99.00000000     -99.00000000
       -99.00000000     -99.00000000     -99.00000000     -99.00000000     -99.00000000     -99.00000000     -99.00000000     -99.00000000     -99.00000000     -99.00000000     -99.00000000     -99.00000000     -99.00000000     -99.00000000     -99.00000000     -99.00000000     -99.00000000     -99.00000000     -99.00000000     -99.00000000
       -99.00000000     -99.00000000     -98.93000031     -98.93000031     -98.93000031     -59.11999893     -68.02000427     -90.97999573     -92.83000183     -70.05999756     -54.20999908     -99.00000000     -99.00000000     -99.00000000     -99.00000000     -99.00000000     -99.00000000     -99.00000000     -99.00000000     -99.00000000
       -99.00000000     -99.00000000     -99.00000000     -99.00000000     -99.00000000     -99.00000000     -99.00000000     -99.00000000     -99.00000000     -99.00000000     -99.00000000     -99.00000000     -99.00000000     -99.00000000     -99.00000000     -99.00000000     -99.00000000     -99.00000000     -99.00000000     -99.00000000
       -99.00000000     -99.00000000     -99.00000000     -99.00000000     -99.00000000     -99.00000000     -99.00000000     -99.00000000     -99.00000000     -99.00000000     -99.00000000     -99.00000000     -99.00000000     -99.00000000     -99.00000000     -99.00000000     -99.00000000     -99.00000000     -99.00000000     -99.00000000
       -99.00000000     -99.00000000     -99.00000000     -99.00000000     -99.00000000     -99.00000000     -99.00000000     -99.00000000     -99.00000000     -99.00000000     -99.00000000     -99.00000000     -99.00000000     -99.00000000     -99.00000000     -99.00000000     -99.00000000     -99.00000000     -99.00000000     -99.00000000
       -99.00000000     -99.00000000     -99.00000000     -99.00000000     -99.00000000     -99.00000000     -99.00000000     -99.00000000     -99.00000000     -99.00000000     -99.00000000     -99.00000000     -99.00000000     -99.00000000     -99.00000000     -99.00000000     -99.00000000     -99.00000000     -99.00000000     -99.00000000
       -99.00000000     -99.00000000     -98.91000366     -98.93000031     -98.93000031     -84.68000031     -71.30000305     -74.37999725     -98.93000031     -98.93000031     -97.91000366     -99.00000000     -99.00000000     -99.00000000     -99.00000000     -99.00000000     -99.00000000     -99.00000000     -99.00000000     -99.00000000
       -99.00000000     -99.00000000     -99.00000000     -99.00000000     -99.00000000     -99.00000000     -99.00000000     -99.00000000     -99.00000000     -99.00000000     -99.00000000     -99.00000000     -99.00000000     -99.00000000     -99.00000000     -99.00000000     -99.00000000     -99.00000000     -99.00000000     -99.00000000
       -99.00000000     -99.00000000     -99.00000000     -99.00000000     -99.00000000     -99.00000000     -99.00000000     -99.00000000     -99.00000000     -99.00000000     -99.00000000     -99.00000000     -99.00000000     -99.00000000     -99.00000000     -99.00000000     -99.00000000     -99.00000000     -99.00000000     -99.00000000
       -99.00000000     -99.00000000     -99.00000000     -99.00000000     -99.00000000     -99.00000000     -99.00000000     -99.00000000     -99.00000000     -99.00000000     -99.00000000     -99.00000000     -99.00000000     -99.00000000     -99.00000000     -99.00000000     -99.00000000     -99.00000000     -99.00000000     -99.00000000
       -99.00000000     262.17999268     303.45999146     288.88000488     161.29998779     183.92001343     148.39999390     125.41999817     108.77999878      96.74000549      62.52000427      44.88000488      36.96000671      46.05999756      48.50000000      66.27999878      43.05999756       0.19000244     -31.37000275     -80.27999878
       -91.72000122     -96.66000366     -94.63999939     -98.93000031     -92.33000183     -85.61000061     -95.54000092     -90.56999969     -98.93000031     -98.93000031     -96.62000275     -99.00000000     -99.00000000     -99.00000000     -99.00000000     -99.00000000     -99.00000000     -99.00000000     -99.00000000     -99.00000000
       -99.00000000     -99.00000000     -99.00000000     -99.00000000     -99.00000000     -99.00000000     -99.00000000     -99.00000000     -99.00000000     -99.00000000     -99.00000000     -99.00000000     -99.00000000     -99.00000000     -99.00000000     -99.00000000     -99.00000000     -99.00000000     -99.00000000     -99.00000000
       -99.00000000     -99.00000000     -99.00000000     -99.00000000     -99.00000000     -99.00000000     -99.00000000     -99.00000000     -99.00000000     -99.00000000     -99.00000000     -99.00000000     -99.00000000     -99.00000000     -99.00000000     -99.00000000     -99.00000000     -99.00000000     -99.00000000     -99.00000000
       -99.00000000     -99.00000000     -99.00000000     -99.00000000     -99.00000000     -99.00000000     -99.00000000     -99.00000000     -99.00000000     -99.00000000     -99.00000000     -99.00000000     -99.00000000     -99.00000000     -99.00000000     -99.00000000     -99.00000000     -99.00000000     -99.00000000     -99.00000000
       -99.00000000     268.92001343     299.38000488     316.88000488     212.11999512     129.67999268     182.00000000     133.39999390     117.75999451     114.46000671     101.41999817      75.02000427      30.99000549      26.59999847      38.44999695      34.30000305       7.27999878     -44.90999985     -23.55000305     -75.43000031
       -88.41000366     -98.93000031     -98.93000031     -98.93000031     -98.93000031     -98.93000031     -98.93000031     -98.93000031     -98.93000031     -98.93000031     -98.25000000     -99.00000000     -99.00000000     -99.00000000     -99.00000000     -99.00000000     -99.00000000     -99.00000000     -99.00000000     -99.00000000
       -99.00000000     -99.00000000     -99.00000000     -99.00000000     -99.00000000     -99.00000000     -99.00000000     -99.00000000     -99.00000000     -99.00000000     -99.00000000     -99.00000000     -99.00000000     -99.00000000     -99.00000000     -99.00000000     -99.00000000     -99.00000000     -99.00000000     -99.00000000
       -99.00000000     -99.00000000     -99.00000000     -99.00000000     -99.00000000     -99.00000000     -99.00000000     -99.00000000     -99.00000000     -99.00000000     -99.00000000     -99.00000000     -99.00000000     -99.00000000     -99.00000000     -99.00000000     -99.00000000     -99.00000000     -99.00000000     -99.00000000
       -99.00000000     -99.00000000     -99.00000000     -99.00000000     -99.00000000     -99.00000000     -99.00000000     -99.00000000     -99.00000000     -99.00000000     -99.00000000     -99.00000000     -99.00000000     -99.00000000     -99.00000000     -99.00000000     -99.00000000     -99.00000000     -99.00000000     -99.00000000
       -99.00000000     294.39999390     308.70001221     225.98999023     127.97999573     114.30000305     135.82000732     185.17001343     127.33999634     151.14999390      94.94999695      72.22999573      31.27000427      29.63999939      52.52999878      14.22000122      34.30000305       3.93000031     -47.34999847     -90.02000427
       -87.93000031     -98.93000031     -98.93000031     -98.93000031     -98.93000031     -98.93000031     -98.93000031     -98.93000031     -98.93000031     -98.93000031     -99.00000000     -99.00000000     -99.00000000     -99.00000000     -99.00000000     -99.00000000     -99.00000000     -99.00000000     -99.00000000     -99.00000000
       -99.00000000     -99.00000000     -99.00000000     -99.00000000     -99.00000000     -99.00000000     -99.00000000     -99.00000000     -99.00000000     -99.00000000     -99.00000000     -99.00000000     -99.00000000     -99.00000000     -99.00000000     -99.00000000     -99.00000000     -99.00000000     -99.00000000     -99.00000000
       -99.00000000     -99.00000000     -99.00000000     -99.00000000     -99.00000000     -99.00000000     -99.00000000     -99.00000000     -99.00000000     -99.00000000     -99.00000000     -99.00000000     -99.00000000     -99.00000000     -99.00000000     -99.00000000     -99.00000000     -99.00000000     -99.00000000     -99.00000000
       -99.00000000     -99.00000000     -99.00000000     -99.00000000     -99.00000000     -99.00000000     -99.00000000     -99.00000000     -99.00000000     -99.00000000     -99.00000000     -99.00000000     -99.00000000     -99.00000000     -99.00000000     -99.00000000     -99.00000000     -99.00000000     -99.00000000     -99.00000000
       -99.00000000     159.02999878     154.60000610     105.55999756      87.63999939      84.16000366     113.16000366     160.00000000     130.92999268     116.16999817      89.66999817      64.00000000      67.33999634      73.30000305      69.00000000      37.80000305     -24.91999817      -9.26999664     -66.81999969     -58.29999924
       -96.83999634     -97.93000031     -98.93000031     -98.93000031     -98.93000031     -98.93000031     -98.93000031     -98.93000031     -98.93000031     -97.16999817     -99.00000000     -99.00000000     -99.00000000     -99.00000000     -99.00000000     -99.00000000     -99.00000000     -99.00000000     -99.00000000     -99.00000000
       -99.00000000     -99.00000000     -99.00000000     -99.00000000     -99.00000000     -99.00000000     -99.00000000     -99.00000000     -99.00000000     -99.00000000     -99.00000000     -99.00000000     -99.00000000     -99.00000000     -99.00000000     -99.00000000     -99.00000000     -99.00000000     -99.00000000     -99.00000000
       -99.00000000     -99.00000000     -99.00000000     -99.00000000     -99.00000000     -99.00000000     -99.00000000     -99.00000000     -99.00000000     -99.00000000     -99.00000000     -99.00000000     -99.00000000     -99.00000000     -99.00000000     -99.00000000     -99.00000000     -99.00000000     -99.00000000     -99.00000000
       -99.00000000     -99.00000000     -99.00000000     -99.00000000     -99.00000000     -99.00000000     -99.00000000     -99.00000000     -99.00000000     -99.00000000     -99.00000000     -99.00000000     -99.00000000     -99.00000000     -99.00000000     -99.00000000     -99.00000000     -99.00000000     -99.00000000     -99.00000000
       -99.00000000      77.86000061      73.97999573      64.97999573      70.24000549      74.27999878      89.82000732     101.46000671      99.16000366      96.14999390      80.94000244      81.35000610      86.32000732      81.58000183      59.75999451      41.88000488     -20.33999634     -50.88999939     -46.47999954     -68.23999786
       -93.22000122     -95.68000031     -98.93000031     -98.93000031     -98.93000031     -98.93000031     -98.93000031     -98.93000031     -94.55999756     -96.83000183     -99.00000000     -99.00000000     -99.00000000     -99.00000000     -99.00000000     -99.00000000     -99.00000000     -99.00000000     -99.00000000     -99.00000000
       -99.00000000     -99.00000000     -99.00000000     -99.00000000     -99.00000000     -99.00000000     -99.00000000     -99.00000000     -99.00000000     -99.00000000     -99.00000000     -99.00000000     -99.00000000     -99.00000000     -99.00000000     -99.00000000     -99.00000000     -99.00000000     -99.00000000     -99.00000000
       -99.00000000     -99.00000000     -99.00000000     -99.00000000     -99.00000000     -99.00000000     -99.00000000     -99.00000000     -99.00000000     -99.00000000     -99.00000000     -99.00000000     -99.00000000     -99.00000000     -99.00000000     -99.00000000     -99.00000000     -99.00000000     -99.00000000     -99.00000000
       -99.00000000     -99.00000000     -99.00000000     -99.00000000     -99.00000000     -99.00000000     -99.00000000     -99.00000000     -99.00000000     -99.00000000     -99.00000000     -99.00000000     -99.00000000     -99.00000000     -99.00000000     -99.00000000     -99.00000000     -99.00000000     -99.00000000     -99.00000000
       -99.00000000      61.22000122      55.69999695      56.92999268      62.69999695      82.30000305      78.10000610      67.52000427      55.96000671      83.32000732      62.72000122      56.69999695     101.69999695      72.30000305      40.60000610      33.44000244      19.50000000      25.47000122     -35.40999985     -73.87999725
       -98.12999725     -98.93000031     -98.93000031     -98.93000031     -98.93000031     -98.93000031     -98.93000031     -97.09999847     -98.93000031     -98.93000031     -99.59999847     -99.00000000     -99.00000000     -99.00000000     -99.00000000     -99.00000000     -99.00000000     -99.00000000     -99.00000000     -99.00000000
       -99.00000000     -99.00000000     -99.00000000     -99.00000000     -99.00000000     -99.00000000     -99.00000000     -99.00000000     -99.00000000     -99.00000000     -99.00000000     -99.00000000     -99.00000000     -99.00000000     -99.00000000     -99.00000000     -99.00000000     -99.00000000     -99.00000000     -99.00000000
       -99.00000000     -99.00000000     -99.00000000     -99.00000000     -99.00000000     -99.00000000     -99.00000000     -99.00000000     -99.00000000     -99.00000000     -99.00000000     -99.00000000     -99.00000000     -99.00000000     -99.00000000     -99.00000000     -99.00000000     -99.00000000     -99.00000000     -99.00000000
       -99.00000000     -99.00000000     -99.00000000     -99.00000000     -99.00000000     -99.00000000     -99.00000000     -99.00000000     -99.00000000     -99.00000000     -99.00000000     -99.00000000     -99.00000000     -99.00000000     -99.00000000     -99.00000000     -99.00000000     -99.00000000     -99.00000000     -99.00000000
       -99.00000000      54.57000732      55.30000305      62.03999329      73.52000427     101.07000732      94.39999390      83.25000000      73.77999878      81.83000183      59.72999573      43.44000244      59.75000000      52.16999817      32.49000549      36.80000305      29.49000549     -15.33999634     -73.63999939     -98.30000305
       -98.93000031     -98.93000031     -98.93000031     -98.93000031     -98.93000031     -98.93000031     -98.93000031     -97.88999939     -98.93000031     -95.97000122     -99.00000000     -99.00000000     -99.00000000     -99.00000000     -99.00000000     -99.00000000     -99.00000000     -99.00000000     -99.00000000     -99.00000000
       -99.00000000     -99.00000000     -99.00000000     -99.00000000     -99.00000000     -99.00000000     -99.00000000     -99.00000000     -99.00000000     -99.00000000     -99.00000000     -99.00000000     -99.00000000     -99.00000000     -99.00000000     -99.00000000     -99.00000000     -99.00000000     -99.00000000     -99.00000000
       -99.00000000     -99.00000000     -99.00000000     -99.00000000     -99.00000000     -99.00000000     -99.00000000     -99.00000000     -99.00000000     -99.00000000     -99.00000000     -99.00000000     -99.00000000     -99.00000000     -99.00000000     -99.00000000     -99.00000000     -99.00000000     -99.00000000     -99.00000000
       -99.00000000     -99.00000000     -99.00000000     -99.00000000     -99.00000000     -99.00000000     -99.00000000     -99.00000000     -99.00000000     -99.00000000     -99.00000000     -99.00000000     -99.00000000     -99.00000000     -99.00000000     -99.00000000     -99.00000000     -99.00000000     -99.00000000     -99.00000000
       -99.00000000      70.24000549      60.82000732      65.30999756      83.38000488     103.24000549      82.41999817      85.07000732      52.02000427      59.39999390      32.08000183     -26.40000153      29.50000000      46.00000000      28.12000275       3.80000305     -72.69999695     -98.69999695     -98.93000031     -98.93000031
       -98.93000031     -98.93000031     -98.93000031     -98.93000031     -98.93000031     -98.93000031     -96.83999634     -98.93000031     -96.88999939     -96.73999786     -99.00000000     -99.00000000     -99.00000000     -99.00000000     -99.00000000     -99.00000000     -99.00000000     -99.00000000     -99.00000000     -99.00000000
       -99.00000000     -99.00000000     -99.00000000     -99.00000000     -99.00000000     -99.00000000     -99.00000000     -99.00000000     -99.00000000     -99.00000000     -99.00000000     -99.00000000     -99.00000000     -99.00000000     -99.00000000     -99.00000000     -99.00000000     -99.00000000     -99.00000000     -99.00000000
       -99.00000000     -99.00000000     -99.00000000     -99.00000000     -99.00000000     -99.00000000     -99.00000000     -99.00000000     -99.00000000     -99.00000000     -99.00000000     -99.00000000     -99.00000000     -99.00000000     -99.00000000     -99.00000000     -99.00000000     -99.00000000     -99.00000000     -99.00000000