BEGIN options
  SAVE_FLOWS
END options

BEGIN dimensions
  MAXBOUND  6664
END dimensions

BEGIN period  1
  1 4 127      20.20999908       0.00100000
  1 4 128      21.36000061       0.00100000
  1 4 129      34.33000183       0.00100000
  1 4 130      44.18000031       0.00100000
  1 4 131      23.62000084       0.00100000
  1 4 132       1.25999999       0.00100000
  1 5 126      15.87000084       0.00100000
  1 5 127      24.71999931       0.00100000
  1 5 128      36.45000076       0.00100000
  1 5 129      36.95000076       0.00100000
  1 5 130      45.15000153       0.00100000
  1 5 131      49.02000046       0.00100000
  1 5 132      48.61000061       0.00100000
  1 6 127      17.05999947       0.00100000
  1 6 128      37.70000076       0.00100000
  1 6 129      39.65999985       0.00100000
  1 6 130      35.06000137       0.00100000
  1 6 131      45.65999985       0.00100000
  1 6 132      48.97000122       0.00100000
  1 6 133      52.06000137       0.00100000
  1 6 134      54.15000153       0.00100000
  1 7 127      20.56999969       0.00100000
  1 7 128      41.45000076       0.00100000
  1 7 129      47.38000107       0.00100000
  1 7 130      44.29000092       0.00100000
  1 7 131      52.31000137       0.00100000
  1 7 132      47.45000076       0.00100000
  1 7 133      50.43000031       0.00100000
  1 7 134      51.79000092       0.00100000
  1 7 135      44.65000153       0.00100000
  1 7 136      44.72000122       0.00100000
  1 8 127      -1.05000000       0.00100000
  1 8 128      43.15000153       0.00100000
  1 8 129      48.34000015       0.00100000
  1 8 130      46.54000092       0.00100000
  1 8 131      44.56000137       0.00100000
  1 8 132      42.65000153       0.00100000
  1 8 133      45.24000168       0.00100000
  1 8 134      42.74000168       0.00100000
  1 8 135      39.61000061       0.00100000
  1 8 136      45.54000092       0.00100000
  1 9 128      20.67000008       0.00100000
  1 9 129      47.00000000       0.00100000
  1 9 130      45.22000122       0.00100000
  1 9 131      37.88000107       0.00100000
  1 9 132      48.20000076       0.00100000
  1 9 133      51.36000061       0.00100000
  1 9 134      55.25000000       0.00100000
  1 9 135      42.56000137       0.00100000
  1 9 136      49.15999985       0.00100000
  1 9 137      45.40000153       0.00100000
  1 10 128      10.39999962       0.00100000
  1 10 129      42.40000153       0.00100000
  1 10 130      40.45000076       0.00100000
  1 10 131      37.36000061       0.00100000
  1 10 132      40.90999985       0.00100000
  1 10 133      42.72000122       0.00100000
  1 10 134      34.27000046       0.00100000
  1 10 135      26.63999939       0.00100000
  1 10 136      21.80999947       0.00100000
  1 10 137      46.34000015       0.00100000
  1 11 130      19.87999916       0.00100000
  1 11 131      15.94000053       0.00100000
  1 11 132      19.21999931       0.00100000
  1 11 133      28.06999969       0.00100000
  1 11 134      17.87000084       0.00100000
  1 11 135      27.28000069       0.00100000
  1 11 136      36.90000153       0.00100000
  1 12 130      33.61000061       0.00100000
  1 12 131      18.96999931       0.00100000
  1 12 132       3.67000008       0.00100000
  1 12 133       6.07000017       0.00100000
  1 12 134       4.88000011       0.00100000
  1 12 135      43.59000015       0.00100000
  1 12 136      46.47000122       0.00100000
  1 13 130      19.04000092       0.00100000
  1 13 131       7.43999958       0.00100000
  1 13 132       5.36000013       0.00100000
  1 13 135       1.23000002       0.00100000
  1 13 136       0.83000004       0.00100000
  1 14 136       1.25000000       0.00100000
  1 15 127       0.45000005       0.00100000
  1 18 135       1.06999993       0.00100000
  1 19 135       0.23000002       0.00100000
  1 20 134       4.25000000       0.00100000
  1 20 135       1.26999998       0.00100000
  1 21 133       5.67000008       0.00100000
  1 21 134      -0.56000000       0.00100000
  1 21 135       2.25000000       0.00100000
  1 22 133      -0.27999997       0.00100000
  1 22 134       0.63000000       0.00100000
  1 23 120       0.08000004       0.00100000
  1 23 132       0.75999999       0.00100000
  1 23 133      -0.93000000       0.00100000
  1 23 134      -0.93000000       0.00100000
  1 24 119       4.90000010       0.00100000
  1 24 120      -0.38000000       0.00100000
  1 24 131       1.25000000       0.00100000
  1 24 132      -0.26999998       0.00100000
  1 24 133       0.02999997       0.00100000
  1 24 134       0.65999997       0.00100000
  1 25 117       1.60999990       0.00100000
  1 25 118      -0.69999999       0.00100000
  1 25 131       0.29999995       0.00100000
  1 25 132      -0.93000000       0.00100000
  1 25 133       0.64999998       0.00100000
  1 25 134       0.99000001       0.00100000
  1 26 114      29.70999908       0.00100000
  1 26 115       9.76000023       0.00100000
  1 26 116      -0.79000001       0.00100000
  1 26 131      -0.93000000       0.00100000
  1 26 132       0.38000000       0.00100000
  1 26 133       0.53999996       0.00100000
  1 26 134       0.97000003       0.00100000
  1 27 111       7.02000046       0.00100000
  1 27 112       0.79999995       0.00100000
  1 27 113      -0.75000000       0.00100000
  1 27 114      -0.59999999       0.00100000
  1 27 115      -0.75000000       0.00100000
  1 27 131       5.40000010       0.00100000
  1 27 132      -0.93000000       0.00100000
  1 27 133       0.87000000       0.00100000
  1 28 108      11.22000027       0.00100000
  1 28 109      11.89000034       0.00100000
  1 28 110      11.27000046       0.00100000
  1 28 111       1.76999998       0.00100000
  1 28 112      -0.80000000       0.00100000
  1 28 113      -0.80000000       0.00100000
  1 28 132       0.90999997       0.00100000
  1 28 133       1.10999990       0.00100000
  1 29 105      13.47000027       0.00100000
  1 29 106      10.14000034       0.00100000
  1 29 107       1.96000004       0.00100000
  1 29 108       1.25000000       0.00100000
  1 29 109       3.42000008       0.00100000
  1 29 110       3.21000004       0.00100000
  1 29 111      -0.45999998       0.00100000
  1 29 112      -0.69999999       0.00100000
  1 29 132       3.07000017       0.00100000
  1 29 133       1.38000011       0.00100000
  1 30 104      15.79999924       0.00100000
  1 30 105       8.56999969       0.00100000
  1 30 106       4.51000023       0.00100000
  1 30 107       0.33000004       0.00100000
  1 30 108      -0.13000000       0.00100000
  1 30 109      -0.63999999       0.00100000
  1 30 110      -0.59999999       0.00100000
  1 30 111      -0.83000000       0.00100000
  1 30 131       0.38999999       0.00100000
  1 30 132      -0.93000000       0.00100000
  1 30 133       0.70000005       0.00100000
  1 31 103      22.73999977       0.00100000
  1 31 104       8.38000011       0.00100000
  1 31 105       4.78000021       0.00100000
  1 31 106       0.79999995       0.00100000
  1 31 107      -0.25000000       0.00100000
  1 31 108      -0.50000000       0.00100000
  1 31 109      -0.69000000       0.00100000
  1 31 110      -0.69000000       0.00100000
  1 31 111      -0.95000000       0.00100000
  1 31 130      -0.07999998       0.00100000
  1 31 132       0.96000004       0.00100000
  1 31 133       1.19000006       0.00100000
  1 32 103       6.57000017       0.00100000
  1 32 104       3.44000006       0.00100000
  1 32 105       0.62000000       0.00100000
  1 32 106      -0.31999999       0.00100000
  1 32 107      -1.05000000       0.00100000
  1 32 108      -0.38000000       0.00100000
  1 32 109      -1.01000000       0.00100000
  1 32 110      -1.05000000       0.00100000
  1 32 111      -0.75000000       0.00100000
  1 32 129       0.73000002       0.00100000
  1 32 130       0.09000003       0.00100000
  1 32 131       0.28999996       0.00100000
  1 32 132       0.50000000       0.00100000
  1 32 133       1.91000009       0.00100000
  1 33 102      11.31999969       0.00100000
  1 33 103       6.57000017       0.00100000
  1 33 104       0.21000004       0.00100000
  1 33 105      -0.49000001       0.00100000
  1 33 106      -0.13000000       0.00100000
  1 33 107      -0.84999999       0.00100000
  1 33 108      -1.10000000       0.00100000
  1 33 109      -1.07000000       0.00100000
  1 33 110      -0.80000000       0.00100000
  1 33 130       0.41999996       0.00100000
  1 33 131      -0.93000000       0.00100000
  1 33 132       0.75000000       0.00100000
  1 33 133       2.21000004       0.00100000
  1 34 101      19.57999992       0.00100000
  1 34 102      10.06000042       0.00100000
  1 34 103       3.13000011       0.00100000
  1 34 104       0.54999995       0.00100000
  1 34 105       0.04999995       0.00100000
  1 34 106      -0.14999998       0.00100000
  1 34 107      -0.59999999       0.00100000
  1 34 108      -0.91000000       0.00100000
  1 34 109      -1.05000000       0.00100000
  1 34 112      -0.31999999       0.00100000
  1 34 113      -0.56999999       0.00100000
  1 34 132       0.82000005       0.00100000
  1 34 133       2.52999997       0.00100000
  1 35 98      37.08000183       0.00100000
  1 35 99      29.52000046       0.00100000
  1 35 100      20.96999931       0.00100000
  1 35 101      14.77999973       0.00100000
  1 35 102       9.64000034       0.00100000
  1 35 103       5.26000023       0.00100000
  1 35 104       2.83999991       0.00100000
  1 35 105       2.73000002       0.00100000
  1 35 106       2.50999999       0.00100000
  1 35 107       0.00999999       0.00100000
  1 35 108      -0.38000000       0.00100000
  1 35 109      -0.83000000       0.00100000
  1 35 110       1.07999992       0.00100000
  1 35 111      -0.26999998       0.00100000
  1 35 112      -0.50000000       0.00100000
  1 35 113      -0.89000000       0.00100000
  1 35 127       1.10999990       0.00100000
  1 35 131      -0.93000000       0.00100000
  1 35 132       0.71000004       0.00100000
  1 36 98      32.29999924       0.00100000
  1 36 99      26.60000038       0.00100000
  1 36 100      20.57999992       0.00100000
  1 36 101      14.35999966       0.00100000
  1 36 102       9.63000011       0.00100000
  1 36 103       9.97999954       0.00100000
  1 36 104       5.67000008       0.00100000
  1 36 105       3.86000013       0.00100000
  1 36 106       1.94000006       0.00100000
  1 36 107       0.07000005       0.00100000
  1 36 108      -0.50000000       0.00100000
  1 36 109       0.82000005       0.00100000
  1 36 110      -0.12000000       0.00100000
  1 36 111      -0.50000000       0.00100000
  1 36 112      -0.89000000       0.00100000
  1 36 113      -0.23000002       0.00100000
  1 36 114      -0.44000000       0.00100000
  1 36 127      -0.38000000       0.00100000
  1 36 131       0.20000005       0.00100000
  1 36 132       0.57000005       0.00100000
  1 37 98      26.23999977       0.00100000
  1 37 99      20.60000038       0.00100000
  1 37 100      18.45999908       0.00100000
  1 37 101      14.69999981       0.00100000
  1 37 102      12.14000034       0.00100000
  1 37 103       8.06999969       0.00100000
  1 37 104       6.46000004       0.00100000
  1 37 105       4.34000015       0.00100000
  1 37 106       2.34999990       0.00100000
  1 37 107       1.25000000       0.00100000
  1 37 108       0.00999999       0.00100000
  1 37 109       1.80999994       0.00100000
  1 37 110       1.74000001       0.00100000
  1 37 111      -0.31000000       0.00100000
  1 37 112      -0.42000002       0.00100000
  1 37 113      -0.26999998       0.00100000
  1 37 114      -0.75000000       0.00100000
  1 37 131       5.94000006       0.00100000
  1 37 132       0.66999996       0.00100000
  1 38 99      21.89999962       0.00100000
  1 38 100      19.10000038       0.00100000
  1 38 101      14.34000015       0.00100000
  1 38 102      11.56000042       0.00100000
  1 38 103       8.51000023       0.00100000
  1 38 104       6.69000006       0.00100000
  1 38 105       4.82000017       0.00100000
  1 38 106       3.86000013       0.00100000
  1 38 107       3.67000008       0.00100000
  1 38 108       0.97000003       0.00100000
  1 38 109       1.92000008       0.00100000
  1 38 110       1.21000004       0.00100000
  1 38 111      -0.00999999       0.00100000
  1 38 112      -0.38000000       0.00100000
  1 38 113      -0.53999999       0.00100000
  1 38 114      -0.53999999       0.00100000
  1 38 129       1.07999992       0.00100000
  1 38 130       0.54999995       0.00100000
  1 38 131       0.26999998       0.00100000
  1 38 132       0.76999998       0.00100000
  1 39 99      20.60000038       0.00100000
  1 39 100      18.47999954       0.00100000
  1 39 101      13.76000023       0.00100000
  1 39 102      11.61999989       0.00100000
  1 39 103       8.56000042       0.00100000
  1 39 104       8.64000034       0.00100000
  1 39 105       7.38000011       0.00100000
  1 39 106       4.96000004       0.00100000
  1 39 107       3.78000021       0.00100000
  1 39 108       3.21000004       0.00100000
  1 39 109       2.25999999       0.00100000
  1 39 110       3.28000021       0.00100000
  1 39 111       0.14999998       0.00100000
  1 39 112      -0.53999999       0.00100000
  1 39 113      -0.53999999       0.00100000
  1 39 114       0.20000005       0.00100000
  1 39 128       0.87000000       0.00100000
  1 39 130       0.71000004       0.00100000
  1 39 131       0.12000000       0.00100000
  1 39 132       1.31999993       0.00100000
  1 40 87      60.06000137       0.00100000
  1 40 88      58.04000092       0.00100000
  1 40 89      55.27999878       0.00100000
  1 40 90      51.43999863       0.00100000
  1 40 91      48.63999939       0.00100000
  1 40 92      44.34000015       0.00100000
  1 40 93      40.91999817       0.00100000
  1 40 97      26.21999931       0.00100000
  1 40 98      24.12000084       0.00100000
  1 40 99      20.54000092       0.00100000
  1 40 100      17.43000031       0.00100000
  1 40 101      15.05999947       0.00100000
  1 40 102      11.63000011       0.00100000
  1 40 103       9.68999958       0.00100000
  1 40 104       7.93000031       0.00100000
  1 40 105       6.71000004       0.00100000
  1 40 106       6.03000021       0.00100000
  1 40 107       3.98000002       0.00100000
  1 40 108       3.96000004       0.00100000
  1 40 109       3.44000006       0.00100000
  1 40 110       3.19000006       0.00100000
  1 40 111       1.75999999       0.00100000
  1 40 112       0.10000002       0.00100000
  1 40 113       0.22000003       0.00100000
  1 40 114       0.00000000       0.00100000
  1 40 128       0.40999997       0.00100000
  1 40 129      -0.93000000       0.00100000
  1 40 130       1.20000005       0.00100000
  1 40 131       0.13999999       0.00100000
  1 40 132       0.73000002       0.00100000
  1 41 81      81.26000214       0.00100000
  1 41 82      72.94000244       0.00100000
  1 41 83      65.69999695       0.00100000
  1 41 84      57.06000137       0.00100000
  1 41 85      56.31999969       0.00100000
  1 41 86      53.15000153       0.00100000
  1 41 87      56.43000031       0.00100000
  1 41 88      55.56000137       0.00100000
  1 41 89      53.00999832       0.00100000
  1 41 90      50.36000061       0.00100000
  1 41 91      46.70000076       0.00100000
  1 41 92      43.22000122       0.00100000
  1 41 93      40.20000076       0.00100000
  1 41 94      35.95999908       0.00100000
  1 41 95      32.74000168       0.00100000
  1 41 96      28.87999916       0.00100000
  1 41 97      24.12999916       0.00100000
  1 41 98      22.26000023       0.00100000
  1 41 99      19.39999962       0.00100000
  1 41 100      16.54000092       0.00100000
  1 41 101      13.38000011       0.00100000
  1 41 102      11.34000015       0.00100000
  1 41 103       9.25000000       0.00100000
  1 41 104       7.47000027       0.00100000
  1 41 105       6.48000002       0.00100000
  1 41 106       6.01000023       0.00100000
  1 41 107       5.69000006       0.00100000
  1 41 108       6.19000006       0.00100000
  1 41 109       3.53000021       0.00100000
  1 41 110       2.54999995       0.00100000
  1 41 111       1.23000002       0.00100000
  1 41 112       0.66999996       0.00100000
  1 41 113      -0.12000000       0.00100000
  1 41 114      -0.07999998       0.00100000
  1 41 115      -0.45999998       0.00100000
  1 41 130      -0.93000000       0.00100000
  1 41 131      -0.13000000       0.00100000
  1 41 132       1.20000005       0.00100000
  1 42 82      70.40000153       0.00100000
  1 42 83      62.11999893       0.00100000
  1 42 84      55.02000046       0.00100000
  1 42 85      52.00000000       0.00100000
  1 42 86      49.91999817       0.00100000
  1 42 87      52.43999863       0.00100000
  1 42 88      51.09999847       0.00100000
  1 42 89      50.11999893       0.00100000
  1 42 90      48.08000183       0.00100000
  1 42 91      44.47999954       0.00100000
  1 42 92      41.25999832       0.00100000
  1 42 93      38.70000076       0.00100000
  1 42 94      34.86000061       0.00100000
  1 42 95      31.88000107       0.00100000
  1 42 96      27.60000038       0.00100000
  1 42 97      24.02000046       0.00100000
  1 42 98      21.21999931       0.00100000
  1 42 99      18.70000076       0.00100000
  1 42 100      16.15999985       0.00100000
  1 42 101      13.03999996       0.00100000
  1 42 102      10.65999985       0.00100000
  1 42 103       8.77000046       0.00100000
  1 42 104       8.84000015       0.00100000
  1 42 105       7.56000042       0.00100000
  1 42 106       8.81000042       0.00100000
  1 42 107       6.76000023       0.00100000
  1 42 108       6.69000006       0.00100000
  1 42 109       3.84000015       0.00100000
  1 42 110       3.86000013       0.00100000
  1 42 111       2.50000000       0.00100000
  1 42 112       0.86000001       0.00100000
  1 42 113       0.02999997       0.00100000
  1 42 114      -0.12000000       0.00100000
  1 42 115      -0.43000001       0.00100000
  1 42 131       0.69000006       0.00100000
  1 42 132       1.05999994       0.00100000
  1 43 83      55.74000168       0.00100000
  1 43 84      50.36000061       0.00100000
  1 43 85      49.40000153       0.00100000
  1 43 86      45.31999969       0.00100000
  1 43 87      47.86000061       0.00100000
  1 43 88      47.20000076       0.00100000
  1 43 89      45.84000015       0.00100000
  1 43 90      44.15999985       0.00100000
  1 43 91      42.06000137       0.00100000
  1 43 92      38.95999908       0.00100000
  1 43 93      36.50000000       0.00100000
  1 43 94      32.58000183       0.00100000
  1 43 95      29.97999954       0.00100000
  1 43 96      26.29999924       0.00100000
  1 43 97      22.71999931       0.00100000
  1 43 98      19.63999939       0.00100000
  1 43 99      17.39999962       0.00100000
  1 43 100      15.02000046       0.00100000
  1 43 101      12.93999958       0.00100000
  1 43 102      10.96000004       0.00100000
  1 43 103       9.61999989       0.00100000
  1 43 104      11.50000000       0.00100000
  1 43 105       8.93000031       0.00100000
  1 43 106       7.56999969       0.00100000
  1 43 107       6.17000008       0.00100000
  1 43 108       5.98000002       0.00100000
  1 43 109       4.36000013       0.00100000
  1 43 110       3.15000010       0.00100000
  1 43 111       2.15000010       0.00100000
  1 43 112       0.95000005       0.00100000
  1 43 113       0.75999999       0.00100000
  1 43 114       0.21000004       0.00100000
  1 43 115      -0.19000000       0.00100000
  1 43 116       1.49000001       0.00100000
  1 43 126      -0.05000001       0.00100000
  1 43 130       1.18000007       0.00100000
  1 43 131      -0.93000000       0.00100000
  1 43 132       1.00000000       0.00100000
  1 44 83      48.63999939       0.00100000
  1 44 84      45.61999893       0.00100000
  1 44 85      44.74000168       0.00100000
  1 44 86      46.74000168       0.00100000
  1 44 87      43.56000137       0.00100000
  1 44 88      43.22000122       0.00100000
  1 44 89      41.74000168       0.00100000
  1 44 90      40.56000137       0.00100000
  1 44 91      38.50000000       0.00100000
  1 44 92      36.50000000       0.00100000
  1 44 93      34.24000168       0.00100000
  1 44 94      31.00000000       0.00100000
  1 44 95      28.39999962       0.00100000
  1 44 96      24.13999939       0.00100000
  1 44 97      20.15999985       0.00100000
  1 44 98      18.94000053       0.00100000
  1 44 99      16.65999985       0.00100000
  1 44 100      14.44999981       0.00100000
  1 44 101      12.84000015       0.00100000
  1 44 102      12.38000011       0.00100000
  1 44 103      12.97000027       0.00100000
  1 44 104      11.46000004       0.00100000
  1 44 105       8.75000000       0.00100000
  1 44 106       8.27000046       0.00100000
  1 44 107       7.64999962       0.00100000
  1 44 108       6.28000021       0.00100000
  1 44 109       4.98000002       0.00100000
  1 44 110       4.71000004       0.00100000
  1 44 111       3.42000008       0.00100000
  1 44 112       1.85999990       0.00100000
  1 44 113       1.24000001       0.00100000
  1 44 114       0.61000001       0.00100000
  1 44 115       0.50000000       0.00100000
  1 44 116       0.07000005       0.00100000
  1 44 117       0.97000003       0.00100000
  1 44 118       0.25999999       0.00100000
  1 44 123      -0.38999999       0.00100000
  1 44 124       0.66999996       0.00100000
  1 44 125       0.66999996       0.00100000
  1 44 126       0.21000004       0.00100000
  1 44 127       0.33000004       0.00100000
  1 44 128       1.19000006       0.00100000
  1 44 130      -0.06999999       0.00100000
  1 44 132       0.53999996       0.00100000
  1 45 84      41.63999939       0.00100000
  1 45 85      38.40000153       0.00100000
  1 45 86      41.47000122       0.00100000
  1 45 87      40.59000015       0.00100000
  1 45 88      40.13999939       0.00100000
  1 45 89      38.70000076       0.00100000
  1 45 90      37.18000031       0.00100000
  1 45 91      34.97000122       0.00100000
  1 45 92      33.47999954       0.00100000
  1 45 93      31.54000092       0.00100000
  1 45 94      27.76000023       0.00100000
  1 45 95      26.13999939       0.00100000
  1 45 96      22.95999908       0.00100000
  1 45 97      23.87999916       0.00100000
  1 45 98      18.22999954       0.00100000
  1 45 99      15.71999931       0.00100000
  1 45 100      15.20000076       0.00100000
  1 45 101      13.68000031       0.00100000
  1 45 102      13.18999958       0.00100000
  1 45 103      12.88000011       0.00100000
  1 45 104      12.10000038       0.00100000
  1 45 105      10.65999985       0.00100000
  1 45 106       8.56999969       0.00100000
  1 45 107       6.88000011       0.00100000
  1 45 108       5.94000006       0.00100000
  1 45 109       6.94000006       0.00100000
  1 45 110       4.15000010       0.00100000
  1 45 111       3.15000010       0.00100000
  1 45 112       2.38000011       0.00100000
  1 45 113       1.02999997       0.00100000
  1 45 114       0.70000005       0.00100000
  1 45 115       0.63999999       0.00100000
  1 45 116       0.50000000       0.00100000
  1 45 117       0.51999998       0.00100000
  1 45 118       0.26999998       0.00100000
  1 45 119       0.29999995       0.00100000
  1 45 120       0.32000005       0.00100000
  1 45 121       0.23000002       0.00100000
  1 45 122       0.45000005       0.00100000
  1 45 123      -0.38999999       0.00100000
  1 45 124      -0.37000000       0.00100000
  1 45 125      -0.50000000       0.00100000
  1 45 126       0.13999999       0.00100000
  1 45 127       0.66999996       0.00100000
  1 45 128       0.50000000       0.00100000
  1 45 129      -0.89000000       0.00100000
  1 45 130       0.88999999       0.00100000
  1 45 131       0.77999997       0.00100000
  1 45 132       0.65999997       0.00100000
  1 46 83      41.95999908       0.00100000
  1 46 84      37.88000107       0.00100000
  1 46 85      36.95999908       0.00100000
  1 46 86      37.18000031       0.00100000
  1 46 87      37.24000168       0.00100000
  1 46 88      36.63999939       0.00100000
  1 46 89      34.70000076       0.00100000
  1 46 90      33.38000107       0.00100000
  1 46 91      32.70999908       0.00100000
  1 46 92      29.42000008       0.00100000
  1 46 93      28.44000053       0.00100000
  1 46 94      25.75000000       0.00100000
  1 46 95      23.96999931       0.00100000
  1 46 96      19.63999939       0.00100000
  1 46 97      19.57999992       0.00100000
  1 46 98      17.80999947       0.00100000
  1 46 99      16.71999931       0.00100000
  1 46 100      15.55999947       0.00100000
  1 46 101      14.90999985       0.00100000
  1 46 102      13.01000023       0.00100000
  1 46 103      12.19999981       0.00100000
  1 46 104      11.27999973       0.00100000
  1 46 105      10.65999985       0.00100000
  1 46 106       8.96000004       0.00100000
  1 46 107       7.43000031       0.00100000
  1 46 108       6.30000019       0.00100000
  1 46 109       5.84000015       0.00100000
  1 46 110       4.36000013       0.00100000
  1 46 111       3.13000011       0.00100000
  1 46 112       2.42000008       0.00100000
  1 46 113       0.95000005       0.00100000
  1 46 114       0.88000000       0.00100000
  1 46 115       0.86000001       0.00100000
  1 46 116       1.33999991       0.00100000
  1 46 117       1.10999990       0.00100000
  1 46 118       0.86000001       0.00100000
  1 46 119       0.87000000       0.00100000
  1 46 120       0.88999999       0.00100000
  1 46 121       0.65999997       0.00100000
  1 46 122       0.26999998       0.00100000
  1 46 123       0.25000000       0.00100000
  1 46 124      -0.12000000       0.00100000
  1 46 125      -0.13999999       0.00100000
  1 46 126       0.04999995       0.00100000
  1 46 127       1.17000008       0.00100000
  1 46 128       0.94000006       0.00100000
  1 46 129       0.47000003       0.00100000
  1 46 130       0.04999995       0.00100000
  1 46 131       1.00000000       0.00100000
  1 46 132       1.00000000       0.00100000
  1 47 82      44.91999817       0.00100000
  1 47 83      39.72000122       0.00100000
  1 47 84      36.97999954       0.00100000
  1 47 85      34.65999985       0.00100000
  1 47 86      35.75999832       0.00100000
  1 47 87      34.91999817       0.00100000
  1 47 88      33.93999863       0.00100000
  1 47 89      32.65999985       0.00100000
  1 47 90      31.41999817       0.00100000
  1 47 91      29.54000092       0.00100000
  1 47 92      27.61000061       0.00100000
  1 47 93      25.63999939       0.00100000
  1 47 94      23.87999916       0.00100000
  1 47 95      21.57999992       0.00100000
  1 47 96      20.94000053       0.00100000
  1 47 97      19.00000000       0.00100000
  1 47 98      16.57999992       0.00100000
  1 47 99      15.94000053       0.00100000
  1 47 100      15.42000008       0.00100000
  1 47 101      15.13999939       0.00100000
  1 47 102      13.03999996       0.00100000
  1 47 103      12.46000004       0.00100000
  1 47 104      11.35999966       0.00100000
  1 47 105      10.65999985       0.00100000
  1 47 106       9.72000027       0.00100000
  1 47 107       8.31000042       0.00100000
  1 47 108       8.22000027       0.00100000
  1 47 109       8.18000031       0.00100000
  1 47 110       4.59000015       0.00100000
  1 47 111       3.03000021       0.00100000
  1 47 112       1.83999991       0.00100000
  1 47 113       1.42000008       0.00100000
  1 47 114       1.23000002       0.00100000
  1 47 115       1.63000011       0.00100000
  1 47 116       1.38000011       0.00100000
  1 47 117       1.71000004       0.00100000
  1 47 118       1.32999992       0.00100000
  1 47 119       1.55999994       0.00100000
  1 47 120       1.14000010       0.00100000
  1 47 121       0.61000001       0.00100000
  1 47 122       0.70000005       0.00100000
  1 47 123      -0.17000002       0.00100000
  1 47 124      -0.07999998       0.00100000
  1 47 125      -0.19000000       0.00100000
  1 47 126      -0.17000002       0.00100000
  1 47 127       1.00000000       0.00100000
  1 47 128       0.35000002       0.00100000
  1 47 129       1.67000008       0.00100000
  1 47 130      -0.06999999       0.00100000
  1 47 131       0.97000003       0.00100000
  1 47 132       1.25999999       0.00100000
  1 48 81      41.11999893       0.00100000
  1 48 82      39.59999847       0.00100000
  1 48 83      37.40000153       0.00100000
  1 48 84      35.41999817       0.00100000
  1 48 85      35.29999924       0.00100000
  1 48 86      29.37999916       0.00100000
  1 48 87      29.21999931       0.00100000
  1 48 88      31.40000153       0.00100000
  1 48 89      31.11999893       0.00100000
  1 48 90      29.63999939       0.00100000
  1 48 91      27.95999908       0.00100000
  1 48 92      26.31999969       0.00100000
  1 48 93      24.79999924       0.00100000
  1 48 94      23.23999977       0.00100000
  1 48 95      21.71999931       0.00100000
  1 48 96      20.39999962       0.00100000
  1 48 97      19.00000000       0.00100000
  1 48 98      16.86000061       0.00100000
  1 48 99      16.79999924       0.00100000
  1 48 100      15.52000046       0.00100000
  1 48 101      14.80000019       0.00100000
  1 48 102      14.14000034       0.00100000
  1 48 103      13.39999962       0.00100000
  1 48 104      13.00000000       0.00100000
  1 48 105      10.89999962       0.00100000
  1 48 106      10.84000015       0.00100000
  1 48 107      10.39999962       0.00100000
  1 48 108       9.69999981       0.00100000
  1 48 109       6.46000004       0.00100000
  1 48 110       4.55000019       0.00100000
  1 48 111       3.13000011       0.00100000