BEGIN griddata
  strt
    INTERNAL  FACTOR  1.0
        -9.89999962      -9.89999962      -9.89999962      -9.89999962      -9.89999962      -9.89999962      -9.89999962      -9.89999962      -9.89999962      -9.89999962      -9.89999962      -9.89999962      -9.89999962      -9.89999962      -9.89999962      -9.89999962      -9.89999962      -9.89999962      -9.89999962      -9.89999962
        -9.89999962      -9.89999962      -9.89999962      -9.89999962      -9.89999962      -9.89999962      -9.89999962      -9.89999962      -9.89999962      -9.89999962      -9.89999962      -9.89999962      -9.89999962      -9.89999962      -9.89999962      -9.89999962      -9.89999962      -9.89999962      -9.89999962      -9.89999962
        -9.89999962      -9.89999962      -9.89999962      -9.89999962      -9.89999962      -9.89999962      -9.89999962      -9.89999962      -9.89999962      -9.89999962      -9.89999962      -9.89999962      -9.89999962      -9.89999962      -9.89999962      -9.89999962      -9.89999962      -9.89999962      -9.89999962      -9.89999962
        -9.89999962      -9.89999962      -9.89999962      -9.89999962      -9.89999962      -9.89999962      -9.89999962      -9.89999962      -9.89999962      -9.89999962      -9.89999962      -9.89999962      -9.89999962      -9.89999962      -9.89999962      -9.89999962      -9.89999962      -9.89999962      -9.89999962      -9.89999962
        -9.89999962      -9.89999962      -9.89999962      -9.89999962      -9.89999962      -9.89999962      -9.89999962      -9.89999962      -9.89999962      -9.89999962      -9.89999962      -9.89999962      -9.89999962      -9.89999962      -9.89999962      -9.89999962      -9.89999962      -9.89999962      -9.89999962      -9.89999962
        -9.89999962      -9.89999962      -9.89999962      -9.89999962      -9.89999962      -9.89999962      -9.89999962      -9.89999962      -9.89999962      -9.89999962      -9.89999962      -9.89999962      -9.89999962      -9.89999962      -9.89999962      -9.89999962      -9.89999962      -9.89999962      -9.89999962      -9.89999962
        -9.89999962      -9.89999962      -9.89999962      -9.89999962      -9.89999962      -9.89999962      -9.89999962      -9.89999962      -9.89999962      -9.89999962      -9.89999962      -9.89999962      -9.89999962      -9.89999962      -9.89999962      -9.89999962      -9.89999962      -9.89999962      -9.89999962      -9.89999962
        -9.89999962      -9.89999962      -9.89999962      -9.89999962      -9.89999962      -9.89999962      -9.89999962      -9.89999962      -9.89999962      -9.89999962      -9.89999962      -9.89999962      -9.89999962      -9.89999962      -9.89999962      -9.89999962      -9.89999962      -9.89999962      -9.89999962      -9.89999962
        -9.89999962      -9.89999962      -9.89999962      -3.32999992      -5.13999987      -7.33000040      -8.47999954     -10.39999962     -10.39999962     -10.39999962      -9.59999943      -9.80999947      -9.22999954      -8.70999908      -9.43999958      -9.51999950      -9.89999962      -9.89999962      -9.89999962      -9.89999962
        -9.89999962      -9.89999962      -9.89999962      -9.89999962      -9.89999962      -9.89999962      -9.89999962      -9.89999962      -9.89999962    -175.70028687    -177.92250061    -180.46449280    -182.32328796    -183.76078796    -186.23229980    -188.87019348    -191.73619080    -194.80639648    -198.15809631    -201.73278809
        -9.89999962      -9.89999962      -9.89999962      -9.89999962      -9.89999962      -9.89999962      -9.89999962      -9.89999962      -9.89999962      -9.89999962      -9.89999962      -9.89999962      -9.89999962      -9.89999962      -9.89999962      -9.89999962      -9.89999962      -9.89999962      -9.89999962      -9.89999962
        -9.89999962      -9.89999962      -9.89999962      -9.89999962      -9.89999962      -9.89999962      -9.89999962      -9.89999962      -9.89999962      -9.89999962      -9.89999962      -9.89999962      -9.89999962      -9.89999962      -9.89999962      -9.89999962      -9.89999962      -9.89999962      -9.89999962      -9.89999962
        -9.89999962      -9.89999962      -9.89999962      -9.89999962      -9.89999962      -9.89999962      -9.89999962      -9.89999962      -9.89999962      -9.89999962      -9.89999962      -9.89999962      -9.89999962      -9.89999962      -9.89999962      -9.89999962      -9.89999962      -9.89999962      -9.89999962      -9.89999962
        -9.89999962      -9.89999962      -9.89999962      -9.89999962      -9.89999962      -9.89999962      -9.89999962      -9.89999962      -9.89999962      -9.89999962      -9.89999962      -9.89999962      -9.89999962      -9.89999962      -9.89999962      -9.89999962      -9.89999962      -9.89999962      -9.89999962      -9.89999962
        -9.89999962      -9.89999962      -9.89999962      -9.89999962      -9.89999962      -9.89999962      -9.89999962      -9.89999962      -9.89999962      -9.89999962      -9.89999962      -9.89999962      -9.89999962      -9.89999962      -9.89999962      -9.89999962      -9.89999962      -9.89999962      -9.89999962      -9.89999962
        -9.89999962      -9.89999962      -9.89999962      -9.89999962      -9.89999962      -9.89999962      -9.89999962      -9.89999962      -9.89999962      -9.89999962      -9.89999962      -9.89999962      -9.89999962      -9.89999962      -9.89999962      -9.89999962      -9.89999962      -9.89999962      -9.89999962      -9.89999962
        -9.89999962      -9.89999962      -9.89999962      -9.89999962      -9.89999962      -9.89999962      -9.89999962      -9.89999962      -9.89999962      -9.89999962      -9.89999962      -9.89999962      -9.89999962      -9.89999962      -9.89999962      -9.89999962      -9.89999962      -9.89999962      -9.89999962      -9.89999962
        -9.89999962      -9.89999962      -9.89999962      -9.89999962      -9.89999962      -9.89999962      -9.89999962      -9.89999962      -9.89999962      -9.89999962      -9.89999962      -9.89999962      -9.89999962      -9.89999962      -9.89999962      -9.89999962      -9.89999962      -9.89999962      -9.89999962      -9.89999962
        -9.89999962      -9.89999962      -9.89999962      -2.86999989      -4.96000004      -7.19000006      -8.02999973      -8.67000008     -10.39999962     -10.39999962      -9.55999947     -10.39999962      -9.64999962      -9.00999928      -9.52999973      -9.39999962      -9.89999962      -9.89999962      -9.89999962      -9.89999962
        -9.89999962      -9.89999962      -9.89999962      -9.89999962      -9.89999962      -9.89999962      -9.89999962      -9.89999962    -173.87559509    -176.44869995    -178.61968994    -181.25259399    -183.15879822    -184.45968628    -186.87039185    -189.45320129    -192.27079773    -195.30819702    -198.65179443    -202.23889160
        -9.89999962      -9.89999962      -9.89999962      -9.89999962      -9.89999962      -9.89999962      -9.89999962      -9.89999962      -9.89999962      -9.89999962      -9.89999962      -9.89999962      -9.89999962      -9.89999962      -9.89999962      -9.89999962      -9.89999962      -9.89999962      -9.89999962      -9.89999962
        -9.89999962      -9.89999962      -9.89999962      -9.89999962      -9.89999962      -9.89999962      -9.89999962      -9.89999962      -9.89999962      -9.89999962      -9.89999962      -9.89999962      -9.89999962      -9.89999962      -9.89999962      -9.89999962      -9.89999962      -9.89999962      -9.89999962      -9.89999962
        -9.89999962      -9.89999962      -9.89999962      -9.89999962      -9.89999962      -9.89999962      -9.89999962      -9.89999962      -9.89999962      -9.89999962      -9.89999962      -9.89999962      -9.89999962      -9.89999962      -9.89999962      -9.89999962      -9.89999962      -9.89999962      -9.89999962      -9.89999962
        -9.89999962      -9.89999962      -9.89999962      -9.89999962      -9.89999962      -9.89999962      -9.89999962      -9.89999962      -9.89999962      -9.89999962      -9.89999962      -9.89999962      -9.89999962      -9.89999962      -9.89999962      -9.89999962      -9.89999962      -9.89999962      -9.89999962      -9.89999962
        -9.89999962      -9.89999962      -9.89999962      -9.89999962      -9.89999962      -9.89999962      -9.89999962      -9.89999962      -9.89999962      -9.89999962      -9.89999962      -9.89999962      -9.89999962      -9.89999962      -9.89999962      -9.89999962      -9.89999962      -9.89999962      -9.89999962      -9.89999962
        -9.89999962      -9.89999962      -9.89999962      -9.89999962      -9.89999962      -9.89999962      -9.89999962      -9.89999962      -9.89999962      -9.89999962      -9.89999962      -9.89999962      -9.89999962      -9.89999962      -9.89999962      -9.89999962      -9.89999962      -9.89999962      -9.89999962      -9.89999962
        -9.89999962      -9.89999962      -9.89999962      -9.89999962      -9.89999962      -9.89999962      -9.89999962      -9.89999962      -9.89999962      -9.89999962      -9.89999962      -9.89999962      -9.89999962      -9.89999962      -9.89999962      -9.89999962      -9.89999962      -9.89999962      -9.89999962      -9.89999962
        -9.89999962      -9.89999962      -9.89999962      -9.89999962      -9.89999962      -9.89999962      -9.89999962      -9.89999962      -9.89999962      -9.89999962      -9.89999962      -9.89999962      -9.89999962      -9.89999962      -9.89999962      -9.89999962      -9.89999962      -9.89999962      -9.89999962      -9.89999962
        -9.89999962      -9.89999962      -9.89999962      -2.92000008      -5.42000008      -7.30999994      -8.18999958      -8.25000000      -6.96000004      -9.71999931     -10.39999962     -10.39999962     -10.00000000      -9.46000004      -9.68999958      -9.71999931      -9.89999962      -9.89999962      -9.89999962      -9.89999962
        -9.89999962      -9.89999962      -9.89999962      -9.89999962      -9.89999962      -9.89999962      -9.89999962      -9.89999962    -174.70169067    -177.26379395    -179.30009460    -181.95368958    -183.97079468    -185.15458679    -187.51649475    -190.04888916    -192.82199097    -195.82369995    -199.15539551    -202.74569702
        -9.89999962      -9.89999962      -9.89999962      -9.89999962      -9.89999962      -9.89999962      -9.89999962      -9.89999962      -9.89999962      -9.89999962      -9.89999962      -9.89999962      -9.89999962      -9.89999962      -9.89999962      -9.89999962      -9.89999962      -9.89999962      -9.89999962      -9.89999962
        -9.89999962      -9.89999962      -9.89999962      -9.89999962      -9.89999962      -9.89999962      -9.89999962      -9.89999962      -9.89999962      -9.89999962      -9.89999962      -9.89999962      -9.89999962      -9.89999962      -9.89999962      -9.89999962      -9.89999962      -9.89999962      -9.89999962      -9.89999962
        -9.89999962      -9.89999962      -9.89999962      -9.89999962      -9.89999962      -9.89999962      -9.89999962      -9.89999962      -9.89999962      -9.89999962      -9.89999962      -9.89999962      -9.89999962      -9.89999962      -9.89999962      -9.89999962      -9.89999962      -9.89999962      -9.89999962      -9.89999962
        -9.89999962      -9.89999962      -9.89999962      -9.89999962      -9.89999962      -9.89999962      -9.89999962      -9.89999962      -9.89999962      -9.89999962      -9.89999962      -9.89999962      -9.89999962      -9.89999962      -9.89999962      -9.89999962      -9.89999962      -9.89999962      -9.89999962      -9.89999962
        -9.89999962      -9.89999962      -9.89999962      -9.89999962      -9.89999962      -9.89999962      -9.89999962      -9.89999962      -9.89999962      -9.89999962      -9.89999962      -9.89999962      -9.89999962      -9.89999962      -9.89999962      -9.89999962      -9.89999962      -9.89999962      -9.89999962      -9.89999962
        -9.89999962      -9.89999962      -9.89999962      -9.89999962      -9.89999962      -9.89999962      -9.89999962      -9.89999962      -9.89999962      -9.89999962      -9.89999962      -9.89999962      -9.89999962      -9.89999962      -9.89999962      -9.89999962      -9.89999962      -9.89999962      -9.89999962      -9.89999962
        -9.89999962      -9.89999962      -9.89999962      -9.89999962      -9.89999962      -9.89999962      -9.89999962      -9.89999962      -9.89999962      -9.89999962      -9.89999962      -9.89999962      -9.89999962      -9.89999962      -9.89999962      -9.89999962      -9.89999962      -9.89999962      -9.89999962      -9.89999962
        -9.89999962      -9.89999962      -9.89999962      -9.89999962      -9.89999962      -9.89999962      -9.89999962      -9.89999962      -9.89999962      -9.89999962      -9.89999962      -9.89999962      -9.89999962      -9.89999962      -9.89999962      -9.89999962      -9.89999962      -9.89999962      -9.89999962      -9.89999962
        -9.89999962      -9.89999962      -9.89999962      -2.51999998      -5.26999998      -7.84000015      -8.05999947      -8.70999908      -8.57999992      -8.77999973      -8.29999924      -8.52999973      -8.14999962      -8.19999981     -10.39999962      -9.84999943      -9.89999962      -9.89999962      -9.89999962      -9.89999962
        -9.89999962      -9.89999962      -9.89999962      -9.89999962      -9.89999962      -9.89999962      -9.89999962      -9.89999962    -175.84819031    -178.45008850    -180.40919495    -182.80969238    -185.05369568    -186.24029541    -188.53569031    -190.99499512    -193.69569397    -196.63499451    -199.93379211    -203.51159668
        -9.89999962      -9.89999962      -9.89999962      -9.89999962      -9.89999962      -9.89999962      -9.89999962      -9.89999962      -9.89999962      -9.89999962      -9.89999962      -9.89999962      -9.89999962      -9.89999962      -9.89999962      -9.89999962      -9.89999962      -9.89999962      -9.89999962      -9.89999962
        -9.89999962      -9.89999962      -9.89999962      -9.89999962      -9.89999962      -9.89999962      -9.89999962      -9.89999962      -9.89999962      -9.89999962      -9.89999962      -9.89999962      -9.89999962      -9.89999962      -9.89999962      -9.89999962      -9.89999962      -9.89999962      -9.89999962      -9.89999962
        -9.89999962      -9.89999962      -9.89999962      -9.89999962      -9.89999962      -9.89999962      -9.89999962      -9.89999962      -9.89999962      -9.89999962      -9.89999962      -9.89999962      -9.89999962      -9.89999962      -9.89999962      -9.89999962      -9.89999962      -9.89999962      -9.89999962      -9.89999962
        -9.89999962      -9.89999962      -9.89999962      -9.89999962      -9.89999962      -9.89999962      -9.89999962      -9.89999962      -9.89999962      -9.89999962      -9.89999962      -9.89999962      -9.89999962      -9.89999962      -9.89999962      -9.89999962      -9.89999962      -9.89999962      -9.89999962      -9.89999962
        -9.89999962      -9.89999962      -9.89999962      -9.89999962      -9.89999962      -9.89999962      -9.89999962      -9.89999962      -9.89999962      -9.89999962      -9.89999962      -9.89999962      -9.89999962      -9.89999962      -9.89999962      -9.89999962      -9.89999962      -9.89999962      -9.89999962      -9.89999962
        -9.89999962      -9.89999962      -9.89999962      -9.89999962      -9.89999962      -9.89999962      -9.89999962      -9.89999962      -9.89999962      -9.89999962      -9.89999962      -9.89999962      -9.89999962      -9.89999962      -9.89999962      -9.89999962      -9.89999962      -9.89999962      -9.89999962      -9.89999962
        -9.89999962      -9.89999962      -9.89999962      -9.89999962      -9.89999962      -9.89999962      -9.89999962      -9.89999962      -9.89999962      -9.89999962      -9.89999962      -9.89999962      -9.89999962      -9.89999962      -9.89999962      -9.89999962      -9.89999962      -9.89999962      -9.89999962      -9.89999962
        -9.89999962      -9.89999962      -9.89999962      -9.89999962      -9.89999962      -9.89999962      -9.89999962      -9.89999962      -9.89999962      -9.89999962      -9.89999962      -9.89999962      -9.89999962      -9.89999962      -9.89999962      -9.89999962      -9.89999962      -9.89999962      -9.89999962      -9.89999962
        -9.89999962      -9.89999962      -9.89999962      -2.76999998      -5.51999998      -8.63999939      -8.97999954      -6.84000015      -0.96999967       0.10000000       0.10000000    -103.58419800    -144.37799072       0.10000000      -8.11999989     -10.39999962      -9.89999962      -9.89999962      -9.89999962      -9.89999962
        -9.89999962      -9.89999962      -9.89999962      -9.89999962      -9.89999962      -9.89999962      -9.89999962      -9.89999962    -177.15499878    -179.59529114    -181.54508972    -183.73548889    -186.03138733    -187.37809753    -189.62879944    -192.03259277    -194.66979980    -197.54750061    -200.80068970    -204.35308838
        -9.89999962      -9.89999962      -9.89999962      -9.89999962      -9.89999962      -9.89999962      -9.89999962      -9.89999962      -9.89999962      -9.89999962      -9.89999962      -9.89999962      -9.89999962      -9.89999962      -9.89999962      -9.89999962      -9.89999962      -9.89999962      -9.89999962      -9.89999962
        -9.89999962      -9.89999962      -9.89999962      -9.89999962      -9.89999962      -9.89999962      -9.89999962      -9.89999962      -9.89999962      -9.89999962      -9.89999962      -9.89999962      -9.89999962      -9.89999962      -9.89999962      -9.89999962      -9.89999962      -9.89999962      -9.89999962      -9.89999962
        -9.89999962      -9.89999962      -9.89999962      -9.89999962      -9.89999962      -9.89999962      -9.89999962      -9.89999962      -9.89999962      -9.89999962      -9.89999962      -9.89999962      -9.89999962      -9.89999962      -9.89999962      -9.89999962      -9.89999962      -9.89999962      -9.89999962      -9.89999962
        -9.89999962      -9.89999962      -9.89999962      -9.89999962      -9.89999962      -9.89999962      -9.89999962      -9.89999962      -9.89999962      -9.89999962      -9.89999962      -9.89999962      -9.89999962      -9.89999962      -9.89999962      -9.89999962      -9.89999962      -9.89999962      -9.89999962      -9.89999962
        -9.89999962      -9.89999962      -9.89999962      -9.89999962      -9.89999962      -9.89999962      -9.89999962      -9.89999962      -9.89999962      -9.89999962      -9.89999962      -9.89999962      -9.89999962      -9.89999962      -9.89999962      -9.89999962      -9.89999962      -9.89999962      -9.89999962      -9.89999962
        -9.89999962      -9.89999962      -9.89999962      -9.89999962      -9.89999962      -9.89999962      -9.89999962      -9.89999962      -9.89999962      -9.89999962      -9.89999962      -9.89999962      -9.89999962      -9.89999962      -9.89999962      -9.89999962      -9.89999962      -9.89999962      -9.89999962      -9.89999962
        -9.89999962      -9.89999962      -9.89999962      -9.89999962      -9.89999962      -9.89999962      -9.89999962      -9.89999962      -9.89999962      -9.89999962      -9.89999962      -9.89999962      -9.89999962      -9.89999962      -9.89999962      -9.89999962      -9.89999962      -9.89999962      -9.89999962      -9.89999962
        -9.89999962      -9.89999962      -9.89999962      -9.89999962      -9.89999962      -9.89999962      -9.89999962      -9.89999962      -9.89999962      -9.89999962      -9.89999962      -9.89999962      -9.89999962      -9.89999962      -9.89999962      -9.89999962      -9.89999962      -9.89999962      -9.89999962      -9.89999962
        -9.89999962      -9.89999962      -9.89999962      -4.17000008      -6.74000025      -8.26999950      -7.91000032      -0.62999952    -100.74160004    -100.97949982    -145.72650146    -140.82229614    -137.88629150    -137.20909119    -137.24989319    -138.79849243      -9.02999973      -9.89999962      -9.89999962      -9.89999962
        -9.89999962      -9.89999962      -9.89999962      -9.89999962      -9.89999962      -9.89999962      -9.89999962    -175.67039490    -178.59869385    -181.12559509    -183.13499451    -185.27439880    -187.27479553    -188.98658752    -191.19110107    -193.52139282    -196.07919312    -198.85949707    -202.04289246    -205.53709412
        -9.89999962      -9.89999962      -9.89999962      -9.89999962      -9.89999962      -9.89999962      -9.89999962      -9.89999962      -9.89999962      -9.89999962      -9.89999962      -9.89999962      -9.89999962      -9.89999962      -9.89999962      -9.89999962      -9.89999962      -9.89999962      -9.89999962      -9.89999962
        -9.89999962      -9.89999962      -9.89999962      -9.89999962      -9.89999962      -9.89999962      -9.89999962      -9.89999962      -9.89999962      -9.89999962      -9.89999962      -9.89999962      -9.89999962      -9.89999962      -9.89999962      -9.89999962      -9.89999962      -9.89999962      -9.89999962      -9.89999962
        -9.89999962      -9.89999962      -9.89999962      -9.89999962      -9.89999962      -9.89999962      -9.89999962      -9.89999962      -9.89999962      -9.89999962      -9.89999962      -9.89999962      -9.89999962      -9.89999962      -9.89999962      -9.89999962      -9.89999962      -9.89999962      -9.89999962      -9.89999962
        -9.89999962      -9.89999962      -9.89999962      -9.89999962      -9.89999962      -9.89999962      -9.89999962      -9.89999962      -9.89999962      -9.89999962      -9.89999962      -9.89999962      -9.89999962      -9.89999962      -9.89999962      -9.89999962      -9.89999962      -9.89999962      -9.89999962      -9.89999962
        -9.89999962      -9.89999962      -9.89999962      -9.89999962      -9.89999962      -9.89999962      -9.89999962      -9.89999962      -9.89999962      -9.89999962      -9.89999962      -9.89999962      -9.89999962      -9.89999962      -9.89999962      -9.89999962      -9.89999962      -9.89999962      -9.89999962      -9.89999962
        -9.89999962      -9.89999962      -9.89999962      -9.89999962      -9.89999962      -9.89999962      -9.89999962      -9.89999962      -9.89999962      -9.89999962      -9.89999962      -9.89999962      -9.89999962      -9.89999962      -9.89999962      -9.89999962      -9.89999962      -9.89999962      -9.89999962      -9.89999962
        -9.89999962      -9.89999962      -9.89999962      -9.89999962      -9.89999962      -9.89999962      -9.89999962      -9.89999962      -9.89999962      -9.89999962      -9.89999962      -9.89999962      -9.89999962      -9.89999962      -9.89999962      -9.89999962      -9.89999962      -9.89999962      -9.89999962      -9.89999962
        -9.89999962      -9.89999962      -9.89999962      -9.89999962      -9.89999962      -9.89999962      -9.89999962      -9.89999962      -9.89999962      -9.89999962      -9.89999962      -9.89999962      -9.89999962      -9.89999962      -9.89999962      -9.89999962      -9.89999962      -9.89999962      -9.89999962      -9.89999962
        -9.89999962      -9.89999962      -9.89999962      -6.32000017      -8.81999969      -9.78999996      -9.21999931      -3.01999998     -98.91573334    -142.33428955    -138.59329224    -135.73590088    -135.04289246    -135.00769043    -136.33279419    -138.98089600    -141.90660095    -145.14939880      -1.00999963      -9.89999962
        -9.89999962      -9.89999962      -9.89999962      -9.89999962      -9.89999962      -9.89999962      -9.89999962    -176.84649658    -179.88958740    -182.50149536    -184.59858704    -186.84439087    -188.54299927    -190.72239685    -192.92149353    -195.25068665    -197.79438782    -200.51629639    -203.53549194    -206.93409729
        -9.89999962      -9.89999962      -9.89999962      -9.89999962      -9.89999962      -9.89999962      -9.89999962      -9.89999962      -9.89999962      -9.89999962      -9.89999962      -9.89999962      -9.89999962      -9.89999962      -9.89999962      -9.89999962      -9.89999962      -9.89999962      -9.89999962      -9.89999962
        -9.89999962      -9.89999962      -9.89999962      -9.89999962      -9.89999962      -9.89999962      -9.89999962      -9.89999962      -9.89999962      -9.89999962      -9.89999962      -9.89999962      -9.89999962      -9.89999962      -9.89999962      -9.89999962      -9.89999962      -9.89999962      -9.89999962      -9.89999962
        -9.89999962      -9.89999962      -9.89999962      -9.89999962      -9.89999962      -9.89999962      -9.89999962      -9.89999962      -9.89999962      -9.89999962      -9.89999962      -9.89999962      -9.89999962      -9.89999962      -9.89999962      -9.89999962      -9.89999962      -9.89999962      -9.89999962      -9.89999962
        -9.89999962      -9.89999962      -9.89999962      -9.89999962      -9.89999962      -9.89999962      -9.89999962      -9.89999962      -9.89999962      -9.89999962      -9.89999962      -9.89999962      -9.89999962      -9.89999962      -9.89999962      -9.89999962      -9.89999962      -9.89999962      -9.89999962      -9.89999962
        -9.89999962      -9.89999962      -9.89999962      -9.89999962      -9.89999962      -9.89999962      -9.89999962      -9.89999962      -9.89999962      -9.89999962      -9.89999962      -9.89999962      -9.89999962      -9.89999962      -9.89999962      -9.89999962      -9.89999962      -9.89999962      -9.89999962      -9.89999962
        -9.89999962      -9.89999962      -9.89999962      -9.89999962      -9.89999962      -9.89999962      -9.89999962      -9.89999962      -9.89999962      -9.89999962      -9.89999962      -9.89999962      -9.89999962      -9.89999962      -9.89999962      -9.89999962      -9.89999962      -9.89999962      -9.89999962      -9.89999962
        -9.89999962      -9.89999962      -9.89999962      -9.89999962      -9.89999962      -9.89999962      -9.89999962      -9.89999962      -9.89999962      -9.89999962      -9.89999962      -9.89999962      -9.89999962      -9.89999962      -9.89999962      -9.89999962      -9.89999962      -9.89999962      -9.89999962      -9.89999962
        -9.89999962      -9.89999962      -9.89999962      -9.89999962      -9.89999962      -9.89999962      -9.89999962      -9.89999962      -9.89999962      -9.89999962      -9.89999962      -9.89999962      -9.89999962      -9.89999962      -9.89999962      -9.89999962      -9.89999962      -9.89999962      -9.89999962      -9.89999962
        -9.89999962      -9.89999962      -9.89999962      -4.92000008      -7.92999983      -8.62999916      -9.82999992      -9.82999992       0.10000000    -134.50988770    -132.94729614    -132.35668945    -132.40579224    -133.87748718    -136.52758789    -139.45349121    -142.70719910    -146.01148987    -149.32708740    -152.65139771
      -155.31478882      -8.59999943      -9.89999962      -9.89999962      -9.89999962    -171.87548828    -175.12419128    -178.34478760    -181.52549744    -184.25158691    -186.47509766    -188.92520142    -190.87258911    -192.99578857    -195.22138977    -197.54438782    -200.10469055    -202.73509216    -205.54589844    -208.78250122
        -9.89999962      -9.89999962      -9.89999962      -9.89999962      -9.89999962      -9.89999962      -9.89999962      -9.89999962      -9.89999962      -9.89999962      -9.89999962      -9.89999962      -9.89999962      -9.89999962      -9.89999962      -9.89999962      -9.89999962      -9.89999962      -9.89999962      -9.89999962
        -9.89999962      -9.89999962      -9.89999962      -9.89999962      -9.89999962      -9.89999962      -9.89999962      -9.89999962      -9.89999962      -9.89999962      -9.89999962      -9.89999962      -9.89999962      -9.89999962      -9.89999962      -9.89999962      -9.89999962      -9.89999962      -9.89999962      -9.89999962
        -9.89999962      -9.89999962      -9.89999962      -9.89999962      -9.89999962      -9.89999962      -9.89999962      -9.89999962      -9.89999962      -9.89999962      -9.89999962      -9.89999962      -9.89999962      -9.89999962      -9.89999962      -9.89999962      -9.89999962      -9.89999962      -9.89999962      -9.89999962
        -9.89999962      -9.89999962      -9.89999962      -9.89999962      -9.89999962      -9.89999962      -9.89999962      -9.89999962      -9.89999962      -9.89999962      -9.89999962      -9.89999962      -9.89999962      -9.89999962      -9.89999962      -9.89999962      -9.89999962      -9.89999962      -9.89999962      -9.89999962
        -9.89999962      -9.89999962      -9.89999962      -9.89999962      -9.89999962      -9.89999962      -9.89999962      -9.89999962      -9.89999962      -9.89999962      -9.89999962      -9.89999962      -9.89999962      -9.89999962      -9.89999962      -9.89999962      -9.89999962      -9.89999962      -9.89999962      -9.89999962
        -9.89999962      -9.89999962      -9.89999962      -9.89999962      -9.89999962      -9.89999962      -9.89999962      -9.89999962      -9.89999962      -9.89999962      -9.89999962      -9.89999962      -9.89999962      -9.89999962      -9.89999962      -9.89999962      -9.89999962      -9.89999962      -9.89999962      -9.89999962
        -9.89999962      -9.89999962      -9.89999962      -9.89999962      -9.89999962      -9.89999962      -9.89999962      -9.89999962      -9.89999962      -9.89999962      -9.89999962      -9.89999962      -9.89999962      -9.89999962      -9.89999962      -9.89999962      -9.89999962      -9.89999962      -9.89999962      -9.89999962