BEGIN options
  SAVE_FLOWS
END options

BEGIN dimensions
  MAXBOUND  980
END dimensions

BEGIN period  1
  1 115 85      63.50000000       0.10000000
  1 115 86      59.50000000       0.10000000
  1 115 87      50.00000000       0.10000000
  1 115 88      47.50000000       0.10000000
  1 115 89      45.00000000       0.10000000
  1 115 90      43.00000000       0.10000000
  1 115 91      40.00000000       0.10000000
  1 115 92      39.00000000       0.10000000
  1 115 93      36.50000000       0.10000000
  1 115 94      34.00000000       0.10000000
  1 115 95      29.50000000       0.10000000
  1 115 96      30.00000000       0.10000000
  1 115 97      28.50000000       0.10000000
  1 115 98      28.50000000       0.10000000
  1 115 99      23.50000000       0.10000000
  1 115 100      24.00000000       0.10000000
  1 115 101      24.50000000       0.10000000
  1 115 102      23.00000000       0.10000000
  1 115 103      21.50000000       0.10000000
  1 115 104      20.00000000       0.10000000
  1 115 105      20.50000000       0.10000000
  1 115 106      18.00000000       0.10000000
  1 115 107      15.50000000       0.10000000
  1 115 108      12.50000000       0.10000000
  1 115 109      10.00000000       0.10000000
  1 115 110       9.50000000       0.10000000
  1 115 111      10.00000000       0.10000000
  1 115 112       9.00000000       0.10000000
  1 115 113       7.00000000       0.10000000
  1 115 114       6.50000000       0.10000000
  1 115 115       4.50000000       0.10000000
  1 115 116       3.00000000       0.10000000
  1 115 117       4.00000000       0.10000000
  1 115 118       3.50000000       0.10000000
  1 115 119       2.00000000       0.10000000
  1 116 85      66.00000000       0.10000000
  1 116 86      69.50000000       0.10000000
  1 116 87      55.50000000       0.10000000
  1 116 88      53.50000000       0.10000000
  1 116 89      47.00000000       0.10000000
  1 116 90      44.00000000       0.10000000
  1 116 91      40.50000000       0.10000000
  1 116 92      39.00000000       0.10000000
  1 116 93      39.50000000       0.10000000
  1 116 94      34.50000000       0.10000000
  1 116 95      30.00000000       0.10000000
  1 116 96      28.00000000       0.10000000
  1 116 97      27.50000000       0.10000000
  1 116 98      23.00000000       0.10000000
  1 116 99      22.50000000       0.10000000
  1 116 100      21.00000000       0.10000000
  1 116 101      22.50000000       0.10000000
  1 116 102      21.50000000       0.10000000
  1 116 103      21.00000000       0.10000000
  1 116 104      21.50000000       0.10000000
  1 116 105      21.00000000       0.10000000
  1 116 106      17.00000000       0.10000000
  1 116 107      17.00000000       0.10000000
  1 116 108      13.50000000       0.10000000
  1 116 109      12.50000000       0.10000000
  1 116 110      11.00000000       0.10000000
  1 116 111      10.50000000       0.10000000
  1 116 112      10.00000000       0.10000000
  1 116 113       9.50000000       0.10000000
  1 116 114       8.00000000       0.10000000
  1 116 115       5.00000000       0.10000000
  1 116 116       4.00000000       0.10000000
  1 116 117       5.00000000       0.10000000
  1 116 118       4.00000000       0.10000000
  1 116 119       3.00000000       0.10000000
  1 117 85      63.50000000       0.10000000
  1 117 86      62.50000000       0.10000000
  1 117 87      58.50000000       0.10000000
  1 117 88      55.00000000       0.10000000
  1 117 89      49.50000000       0.10000000
  1 117 90      45.50000000       0.10000000
  1 117 91      40.00000000       0.10000000
  1 117 92      39.50000000       0.10000000
  1 117 93      35.00000000       0.10000000
  1 117 94      30.50000000       0.10000000
  1 117 95      29.50000000       0.10000000
  1 117 96      30.00000000       0.10000000
  1 117 97      29.00000000       0.10000000
  1 117 98      22.00000000       0.10000000
  1 117 99      20.50000000       0.10000000
  1 117 100      20.50000000       0.10000000
  1 117 101      19.50000000       0.10000000
  1 117 102      20.00000000       0.10000000
  1 117 103      20.00000000       0.10000000
  1 117 104      21.00000000       0.10000000
  1 117 105      20.50000000       0.10000000
  1 117 106      21.00000000       0.10000000
  1 117 107      17.00000000       0.10000000
  1 117 108      15.00000000       0.10000000
  1 117 109      15.00000000       0.10000000
  1 117 110      12.50000000       0.10000000
  1 117 111      11.00000000       0.10000000
  1 117 112      10.00000000       0.10000000
  1 117 113       8.50000000       0.10000000
  1 117 114       7.00000000       0.10000000
  1 117 115       6.00000000       0.10000000
  1 117 116       6.00000000       0.10000000
  1 117 117       5.00000000       0.10000000
  1 117 118       4.00000000       0.10000000
  1 117 119       3.00000000       0.10000000
  1 118 85      56.50000000       0.10000000
  1 118 86      58.00000000       0.10000000
  1 118 87      60.00000000       0.10000000
  1 118 88      54.50000000       0.10000000
  1 118 89      47.50000000       0.10000000
  1 118 90      43.50000000       0.10000000
  1 118 91      40.00000000       0.10000000
  1 118 92      35.50000000       0.10000000
  1 118 93      31.00000000       0.10000000
  1 118 94      35.00000000       0.10000000
  1 118 95      36.50000000       0.10000000
  1 118 96      33.00000000       0.10000000
  1 118 97      33.50000000       0.10000000
  1 118 98      32.00000000       0.10000000
  1 118 99      26.50000000       0.10000000
  1 118 100      24.00000000       0.10000000
  1 118 101      23.00000000       0.10000000
  1 118 102      21.00000000       0.10000000
  1 118 103      19.00000000       0.10000000
  1 118 104      20.00000000       0.10000000
  1 118 105      20.50000000       0.10000000
  1 118 106      20.00000000       0.10000000
  1 118 107      17.50000000       0.10000000
  1 118 108      17.00000000       0.10000000
  1 118 109      15.00000000       0.10000000
  1 118 110      14.00000000       0.10000000
  1 118 111      12.00000000       0.10000000
  1 118 112      11.00000000       0.10000000
  1 118 113       9.50000000       0.10000000
  1 118 114       8.00000000       0.10000000
  1 118 115       7.00000000       0.10000000
  1 118 116       6.00000000       0.10000000
  1 118 117       6.00000000       0.10000000
  1 118 118       5.00000000       0.10000000
  1 118 119       4.00000000       0.10000000
  1 119 85      49.50000000       0.10000000
  1 119 86      53.50000000       0.10000000
  1 119 87      53.00000000       0.10000000
  1 119 88      51.00000000       0.10000000
  1 119 89      44.00000000       0.10000000
  1 119 90      40.00000000       0.10000000
  1 119 91      36.00000000       0.10000000
  1 119 92      33.50000000       0.10000000
  1 119 93      41.50000000       0.10000000
  1 119 94      37.00000000       0.10000000
  1 119 95      37.50000000       0.10000000
  1 119 96      34.50000000       0.10000000
  1 119 97      36.50000000       0.10000000
  1 119 98      41.50000000       0.10000000
  1 119 99      30.00000000       0.10000000
  1 119 100      24.50000000       0.10000000
  1 119 101      24.50000000       0.10000000
  1 119 102      24.50000000       0.10000000
  1 119 103      22.50000000       0.10000000
  1 119 104      20.50000000       0.10000000
  1 119 105      19.50000000       0.10000000
  1 119 106      21.00000000       0.10000000
  1 119 107      18.00000000       0.10000000
  1 119 108      17.00000000       0.10000000
  1 119 109      15.50000000       0.10000000
  1 119 110      14.00000000       0.10000000
  1 119 111      13.00000000       0.10000000
  1 119 112      11.00000000       0.10000000
  1 119 113      10.00000000       0.10000000
  1 119 114       8.50000000       0.10000000
  1 119 115       8.00000000       0.10000000
  1 119 116       7.00000000       0.10000000
  1 119 117       6.00000000       0.10000000
  1 119 118       5.00000000       0.10000000
  1 119 119       4.00000000       0.10000000
  1 120 85      51.00000000       0.10000000
  1 120 86      47.50000000       0.10000000
  1 120 87      46.00000000       0.10000000
  1 120 88      39.00000000       0.10000000
  1 120 89      36.00000000       0.10000000
  1 120 90      37.00000000       0.10000000
  1 120 91      36.00000000       0.10000000
  1 120 92      42.50000000       0.10000000
  1 120 93      41.00000000       0.10000000
  1 120 94      35.00000000       0.10000000
  1 120 95      34.50000000       0.10000000
  1 120 96      37.00000000       0.10000000
  1 120 97      38.00000000       0.10000000
  1 120 98      40.00000000       0.10000000
  1 120 99      26.00000000       0.10000000
  1 120 100      25.50000000       0.10000000
  1 120 101      25.00000000       0.10000000
  1 120 102      23.50000000       0.10000000
  1 120 103      22.00000000       0.10000000
  1 120 104      20.50000000       0.10000000
  1 120 105      19.50000000       0.10000000
  1 120 106      18.00000000       0.10000000
  1 120 107      18.00000000       0.10000000
  1 120 108      16.50000000       0.10000000
  1 120 109      15.00000000       0.10000000
  1 120 110      13.50000000       0.10000000
  1 120 111      12.00000000       0.10000000
  1 120 112      11.00000000       0.10000000
  1 120 113      10.50000000       0.10000000
  1 120 114       8.50000000       0.10000000
  1 120 115       7.50000000       0.10000000
  1 120 116       6.00000000       0.10000000
  1 120 117       5.00000000       0.10000000
  1 120 118       4.00000000       0.10000000
  1 120 119       3.00000000       0.10000000
  1 121 85      44.50000000       0.10000000
  1 121 86      43.50000000       0.10000000
  1 121 87      39.50000000       0.10000000
  1 121 88      47.00000000       0.10000000
  1 121 89      45.50000000       0.10000000
  1 121 90      46.00000000       0.10000000
  1 121 91      44.00000000       0.10000000
  1 121 92      36.50000000       0.10000000
  1 121 93      30.00000000       0.10000000
  1 121 94      28.50000000       0.10000000
  1 121 95      31.50000000       0.10000000
  1 121 96      40.00000000       0.10000000
  1 121 97      38.00000000       0.10000000
  1 121 98      30.50000000       0.10000000
  1 121 99      25.50000000       0.10000000
  1 121 100      24.00000000       0.10000000
  1 121 101      22.00000000       0.10000000
  1 121 102      20.00000000       0.10000000
  1 121 103      18.50000000       0.10000000
  1 121 104      17.00000000       0.10000000
  1 121 105      17.00000000       0.10000000
  1 121 106      18.00000000       0.10000000
  1 121 107      16.50000000       0.10000000
  1 121 108      15.50000000       0.10000000
  1 121 109      14.50000000       0.10000000
  1 121 110      13.50000000       0.10000000
  1 121 111      12.00000000       0.10000000
  1 121 112      10.50000000       0.10000000
  1 121 113       9.00000000       0.10000000
  1 121 114       9.00000000       0.10000000
  1 121 115       7.00000000       0.10000000
  1 121 116       6.00000000       0.10000000
  1 121 117       5.00000000       0.10000000
  1 121 118       4.00000000       0.10000000
  1 121 119       3.50000000       0.10000000
  1 122 85      46.50000000       0.10000000
  1 122 86      40.00000000       0.10000000
  1 122 87      55.50000000       0.10000000
  1 122 88      55.00000000       0.10000000
  1 122 89      52.00000000       0.10000000
  1 122 90      41.00000000       0.10000000
  1 122 91      33.50000000       0.10000000
  1 122 92      27.00000000       0.10000000
  1 122 93      27.00000000       0.10000000
  1 122 94      32.00000000       0.10000000
  1 122 95      36.50000000       0.10000000
  1 122 96      35.00000000       0.10000000
  1 122 97      41.00000000       0.10000000
  1 122 98      25.00000000       0.10000000
  1 122 99      21.50000000       0.10000000
  1 122 100      20.50000000       0.10000000
  1 122 101      20.50000000       0.10000000
  1 122 102      18.50000000       0.10000000
  1 122 103      18.00000000       0.10000000
  1 122 104      17.00000000       0.10000000
  1 122 105      16.00000000       0.10000000
  1 122 106      16.00000000       0.10000000
  1 122 107      16.00000000       0.10000000
  1 122 108      14.50000000       0.10000000
  1 122 109      14.00000000       0.10000000
  1 122 110      13.00000000       0.10000000
  1 122 111      12.00000000       0.10000000
  1 122 112      11.00000000       0.10000000
  1 122 113       8.00000000       0.10000000
  1 122 114       8.00000000       0.10000000
  1 122 115       7.00000000       0.10000000
  1 122 116       6.00000000       0.10000000
  1 122 117       5.00000000       0.10000000
  1 122 118       4.50000000       0.10000000
  1 122 119       4.00000000       0.10000000
  1 123 85      45.50000000       0.10000000
  1 123 86      47.50000000       0.10000000
  1 123 87      59.00000000       0.10000000
  1 123 88      53.50000000       0.10000000
  1 123 89      33.00000000       0.10000000
  1 123 90      24.00000000       0.10000000
  1 123 91      23.00000000       0.10000000
  1 123 92      23.00000000       0.10000000
  1 123 93      23.00000000       0.10000000
  1 123 94      23.00000000       0.10000000
  1 123 95      45.00000000       0.10000000
  1 123 96      50.50000000       0.10000000
  1 123 97      33.00000000       0.10000000
  1 123 98      25.00000000       0.10000000
  1 123 99      17.50000000       0.10000000
  1 123 100      18.00000000       0.10000000
  1 123 101      17.00000000       0.10000000
  1 123 102      17.00000000       0.10000000
  1 123 103      16.00000000       0.10000000
  1 123 104      17.00000000       0.10000000
  1 123 105      17.00000000       0.10000000
  1 123 106      16.00000000       0.10000000
  1 123 107      15.00000000       0.10000000
  1 123 108      13.50000000       0.10000000
  1 123 109      13.00000000       0.10000000
  1 123 110      12.00000000       0.10000000
  1 123 111      11.00000000       0.10000000
  1 123 112      11.00000000       0.10000000
  1 123 113       8.00000000       0.10000000
  1 123 114       8.00000000       0.10000000
  1 123 115       7.00000000       0.10000000
  1 123 116       6.00000000       0.10000000
  1 123 117       5.00000000       0.10000000
  1 123 118       5.00000000       0.10000000
  1 123 119       5.00000000       0.10000000
  1 124 85      47.00000000       0.10000000
  1 124 86      62.50000000       0.10000000
  1 124 87      63.00000000       0.10000000
  1 124 88      45.50000000       0.10000000
  1 124 89      33.50000000       0.10000000
  1 124 90      23.00000000       0.10000000
  1 124 91      23.00000000       0.10000000
  1 124 92      23.00000000       0.10000000
  1 124 93      23.00000000       0.10000000
  1 124 94      23.00000000       0.10000000
  1 124 95      23.00000000       0.10000000
  1 124 96      31.00000000       0.10000000
  1 124 97      21.50000000       0.10000000
  1 124 98      18.00000000       0.10000000
  1 124 99      18.00000000       0.10000000
  1 124 100      17.00000000       0.10000000
  1 124 101      16.50000000       0.10000000
  1 124 102      16.00000000       0.10000000
  1 124 103      15.00000000       0.10000000
  1 124 104      15.00000000       0.10000000
  1 124 105      16.00000000       0.10000000
  1 124 106      16.00000000       0.10000000
  1 124 107      16.00000000       0.10000000
  1 124 108      13.00000000       0.10000000
  1 124 109      12.00000000       0.10000000
  1 124 110      11.00000000       0.10000000
  1 124 111      10.00000000       0.10000000
  1 124 112       9.50000000       0.10000000
  1 124 113       8.00000000       0.10000000
  1 124 114       8.00000000       0.10000000
  1 124 115       7.00000000       0.10000000
  1 124 116       6.00000000       0.10000000
  1 124 117       6.00000000       0.10000000
  1 124 118       6.00000000       0.10000000
  1 124 119       5.00000000       0.10000000
  1 125 85      66.00000000       0.10000000
  1 125 86      64.00000000       0.10000000
  1 125 87      45.50000000       0.10000000
  1 125 88      41.50000000       0.10000000
  1 125 89      26.00000000       0.10000000
  1 125 90      23.00000000       0.10000000
  1 125 91      23.00000000       0.10000000
  1 125 92      23.00000000       0.10000000
  1 125 93      23.00000000       0.10000000
  1 125 94      23.00000000       0.10000000
  1 125 95      23.50000000       0.10000000
  1 125 96      24.00000000       0.10000000
  1 125 97      18.00000000       0.10000000
  1 125 98      18.00000000       0.10000000
  1 125 99      17.00000000       0.10000000
  1 125 100      17.00000000       0.10000000
  1 125 101      16.00000000       0.10000000
  1 125 102      15.00000000       0.10000000
  1 125 103      14.50000000       0.10000000
  1 125 104      14.00000000       0.10000000
  1 125 105      13.00000000       0.10000000
  1 125 106      16.00000000       0.10000000
  1 125 107      16.00000000       0.10000000
  1 125 108      15.00000000       0.10000000
  1 125 109      11.50000000       0.10000000
  1 125 110      10.00000000       0.10000000
  1 125 111       9.00000000       0.10000000
  1 125 112       8.00000000       0.10000000
  1 125 113       8.00000000       0.10000000
  1 125 114       8.00000000       0.10000000
  1 125 115       7.00000000       0.10000000
  1 125 116       7.00000000       0.10000000
  1 125 117       7.00000000       0.10000000
  1 125 118       6.00000000       0.10000000
  1 125 119       5.00000000       0.10000000
  1 126 85      69.00000000       0.10000000
  1 126 86      47.50000000       0.10000000
  1 126 87      39.00000000       0.10000000
  1 126 88      28.50000000       0.10000000
  1 126 89      26.00000000       0.10000000
  1 126 90      23.00000000       0.10000000
  1 126 91      23.00000000       0.10000000
  1 126 92      23.00000000       0.10000000
  1 126 93      23.00000000       0.10000000
  1 126 94      23.00000000       0.10000000
  1 126 95      24.00000000       0.10000000
  1 126 96      23.00000000       0.10000000
  1 126 97      16.50000000       0.10000000
  1 126 98      18.00000000       0.10000000
  1 126 99      18.00000000       0.10000000
  1 126 100      17.00000000       0.10000000
  1 126 101      16.00000000       0.10000000
  1 126 102      15.00000000       0.10000000
  1 126 103      15.00000000       0.10000000
  1 126 104      14.00000000       0.10000000
  1 126 105      16.00000000       0.10000000
  1 126 106      18.50000000       0.10000000
  1 126 107      16.50000000       0.10000000
  1 126 108      14.00000000       0.10000000
  1 126 109      11.50000000       0.10000000
  1 126 110       9.00000000       0.10000000
  1 126 111       8.00000000       0.10000000
  1 126 112       8.00000000       0.10000000
  1 126 113       8.00000000       0.10000000
  1 126 114       8.00000000       0.10000000
  1 126 115       8.00000000       0.10000000
  1 126 116       8.00000000       0.10000000
  1 126 117       7.00000000       0.10000000
  1 126 118       5.00000000       0.10000000
  1 126 119       5.50000000       0.10000000
  1 127 85      62.50000000       0.10000000
  1 127 86      48.50000000       0.10000000
  1 127 87      37.00000000       0.10000000
  1 127 88      27.50000000       0.10000000
  1 127 89      27.50000000       0.10000000
  1 127 90      27.00000000       0.10000000
  1 127 91      25.50000000       0.10000000
  1 127 92      23.00000000       0.10000000
  1 127 93      23.00000000       0.10000000
  1 127 94      26.00000000       0.10000000
  1 127 95      24.00000000       0.10000000
  1 127 96      23.00000000       0.10000000
  1 127 97      18.50000000       0.10000000
  1 127 98      18.00000000       0.10000000
  1 127 99      18.00000000       0.10000000
  1 127 100      17.50000000       0.10000000
  1 127 101      17.00000000       0.10000000
  1 127 102      16.50000000       0.10000000
  1 127 103      16.00000000       0.10000000
  1 127 104      15.00000000       0.10000000
  1 127 105      20.00000000       0.10000000
  1 127 106      17.00000000       0.10000000
  1 127 107      16.50000000       0.10000000
  1 127 108      14.00000000       0.10000000
  1 127 109      12.00000000       0.10000000
  1 127 110      10.00000000       0.10000000
  1 127 111       9.00000000       0.10000000
  1 127 112      10.50000000       0.10000000
  1 127 113       9.00000000       0.10000000
  1 127 114       8.50000000       0.10000000
  1 127 115       8.00000000       0.10000000
  1 127 116       8.00000000       0.10000000
  1 127 117       6.50000000       0.10000000
  1 127 118       6.00000000       0.10000000
  1 127 119       6.00000000       0.10000000
  1 128 85      60.50000000       0.10000000
  1 128 86      46.00000000       0.10000000
  1 128 87      40.50000000       0.10000000
  1 128 88      42.50000000       0.10000000
  1 128 89      36.50000000       0.10000000
  1 128 90      44.50000000       0.10000000
  1 128 91      46.00000000       0.10000000
  1 128 92      36.50000000       0.10000000
  1 128 93      33.00000000       0.10000000
  1 128 94      29.00000000       0.10000000
  1 128 95      24.00000000       0.10000000
  1 128 96      21.50000000       0.10000000
  1 128 97      20.50000000       0.10000000
  1 128 98      21.00000000       0.10000000
  1 128 99      18.00000000       0.10000000
  1 128 100      18.00000000       0.10000000
  1 128 101      18.00000000       0.10000000
  1 128 102      17.00000000       0.10000000
  1 128 103      16.00000000       0.10000000
  1 128 104      15.00000000       0.10000000
  1 128 105      14.50000000       0.10000000
  1 128 106      15.00000000       0.10000000
  1 128 107      17.00000000       0.10000000
  1 128 108      15.00000000       0.10000000
  1 128 109      12.50000000       0.10000000
  1 128 110      11.00000000       0.10000000
  1 128 111      10.00000000       0.10000000
  1 128 112      10.00000000       0.10000000
  1 128 113      10.00000000       0.10000000
  1 128 114      10.00000000       0.10000000
  1 128 115      10.00000000       0.10000000
  1 128 116       9.00000000       0.10000000
  1 128 117       8.00000000       0.10000000
  1 128 118       7.00000000       0.10000000
  1 128 119       7.00000000       0.10000000
  1 129 85      41.50000000       0.10000000
  1 129 86      32.00000000       0.10000000
  1 129 87      36.00000000       0.10000000
  1 129 88      30.00000000       0.10000000
  1 129 89      35.00000000       0.10000000
  1 129 90      36.00000000       0.10000000
  1 129 91      37.00000000       0.10000000
  1 129 92      32.50000000       0.10000000
  1 129 93      26.00000000       0.10000000
  1 129 94      22.00000000       0.10000000
  1 129 95      16.50000000       0.10000000
  1 129 96      17.50000000       0.10000000
  1 129 97      19.50000000       0.10000000
  1 129 98      17.50000000       0.10000000
  1 129 99      18.00000000       0.10000000
  1 129 100      18.00000000       0.10000000
  1 129 101      18.00000000       0.10000000
  1 129 102      17.00000000       0.10000000
  1 129 103      16.00000000       0.10000000
  1 129 104      15.00000000       0.10000000
  1 129 105      15.00000000       0.10000000
  1 129 106      15.50000000       0.10000000
  1 129 107      13.00000000       0.10000000
  1 129 108      14.00000000       0.10000000
  1 129 109      15.00000000       0.10000000
  1 129 110      12.50000000       0.10000000
  1 129 111      11.00000000       0.10000000
  1 129 112      11.00000000       0.10000000
  1 129 113      11.00000000       0.10000000
  1 129 114      10.00000000       0.10000000
  1 129 115       9.00000000       0.10000000
  1 129 116       8.00000000       0.10000000
  1 129 117       7.50000000       0.10000000
  1 129 118       7.00000000       0.10000000
  1 129 119       7.00000000       0.10000000
  1 130 85      35.50000000       0.10000000
  1 130 86      27.50000000       0.10000000
  1 130 87      22.50000000       0.10000000
  1 130 88      18.00000000       0.10000000
  1 130 89      16.00000000       0.10000000
  1 130 90      17.50000000       0.10000000
  1 130 91      14.00000000       0.10000000
  1 130 92      25.50000000       0.10000000
  1 130 93      22.00000000       0.10000000
  1 130 94      22.00000000       0.10000000
  1 130 95      18.00000000       0.10000000
  1 130 96      18.00000000       0.10000000
  1 130 97      18.00000000       0.10000000
  1 130 98      17.00000000       0.10000000
  1 130 99      19.50000000       0.10000000
  1 130 100      18.00000000       0.10000000
  1 130 101      18.00000000       0.10000000
  1 130 102      17.00000000       0.10000000
  1 130 103      16.00000000       0.10000000
  1 130 104      15.00000000       0.10000000
  1 130 105      14.50000000       0.10000000
  1 130 106      13.50000000       0.10000000
  1 130 107      13.00000000       0.10000000
  1 130 108      12.50000000       0.10000000
  1 130 109      14.00000000       0.10000000
  1 130 110      13.00000000       0.10000000
  1 130 111      12.50000000       0.10000000
  1 130 112      12.00000000       0.10000000
  1 130 113      11.00000000       0.10000000
  1 130 114       8.00000000       0.10000000
  1 130 115       8.00000000       0.10000000
  1 130 116       7.50000000       0.10000000
  1 130 117       7.50000000       0.10000000
  1 130 118       7.00000000       0.10000000
  1 130 119       8.00000000       0.10000000
  1 131 85      36.50000000       0.10000000
  1 131 86      28.00000000       0.10000000
  1 131 87      19.50000000       0.10000000
  1 131 88      18.00000000       0.10000000
  1 131 89      17.00000000       0.10000000
  1 131 90      18.00000000       0.10000000
  1 131 91      18.00000000       0.10000000
  1 131 92      18.00000000       0.10000000
  1 131 93      18.00000000       0.10000000
  1 131 94      18.00000000       0.10000000
  1 131 95      18.00000000       0.10000000
  1 131 96      16.50000000       0.10000000
  1 131 97      18.00000000       0.10000000
  1 131 98      22.00000000       0.10000000
  1 131 99      18.50000000       0.10000000
  1 131 100      18.00000000       0.10000000
  1 131 101      17.00000000       0.10000000
  1 131 102      16.50000000       0.10000000
  1 131 103      16.00000000       0.10000000
  1 131 104      15.00000000       0.10000000
  1 131 105      14.00000000       0.10000000
  1 131 106      14.00000000       0.10000000
  1 131 107      14.00000000       0.10000000
  1 131 108      14.00000000       0.10000000
  1 131 109      14.00000000       0.10000000
  1 131 110      13.50000000       0.10000000
  1 131 111      13.50000000       0.10000000
  1 131 112       7.00000000       0.10000000
  1 131 113       8.50000000       0.10000000
  1 131 114       8.00000000       0.10000000
  1 131 115       7.50000000       0.10000000
  1 131 116       6.00000000       0.10000000
  1 131 117       6.00000000       0.10000000
  1 131 118      13.00000000       0.10000000
  1 131 119      13.00000000       0.10000000
  1 132 85      36.00000000       0.10000000
  1 132 86      28.00000000       0.10000000
  1 132 87      20.00000000       0.10000000
  1 132 88      18.00000000       0.10000000
  1 132 89      20.00000000       0.10000000
  1 132 90      18.00000000       0.10000000
  1 132 91      17.50000000       0.10000000
  1 132 92      18.00000000       0.10000000
  1 132 93      18.00000000       0.10000000
  1 132 94      20.50000000       0.10000000
  1 132 95      22.00000000       0.10000000
  1 132 96      25.00000000       0.10000000
  1 132 97      30.00000000       0.10000000
  1 132 98      24.00000000       0.10000000
  1 132 99      18.00000000       0.10000000
  1 132 100      18.00000000       0.10000000
  1 132 101      17.50000000       0.10000000
  1 132 102      17.00000000       0.10000000
  1 132 103      16.00000000       0.10000000
  1 132 104      15.00000000       0.10000000
  1 132 105      15.00000000       0.10000000
  1 132 106      15.00000000       0.10000000
  1 132 107      15.00000000       0.10000000
  1 132 108      15.00000000       0.10000000
  1 132 109      15.00000000       0.10000000
  1 132 110      14.50000000       0.10000000
  1 132 111      11.00000000       0.10000000
  1 132 112      12.50000000       0.10000000
  1 132 113       8.00000000       0.10000000
  1 132 114       8.00000000       0.10000000
  1 132 115       7.50000000       0.10000000
  1 132 116      17.50000000       0.10000000
  1 132 117      17.50000000       0.10000000
  1 132 118      15.00000000       0.10000000
  1 132 119      12.50000000       0.10000000
  1 133 85      39.50000000       0.10000000
  1 133 86      29.50000000       0.10000000
  1 133 87      23.50000000       0.10000000
  1 133 88      21.50000000       0.10000000
  1 133 89      20.50000000       0.10000000
  1 133 90      18.50000000       0.10000000
  1 133 91      21.50000000       0.10000000
  1 133 92      18.00000000       0.10000000
  1 133 93      17.50000000       0.10000000
  1 133 94      23.50000000       0.10000000
  1 133 95      22.00000000       0.10000000
  1 133 96      24.00000000       0.10000000
  1 133 97      23.00000000       0.10000000
  1 133 98      23.50000000       0.10000000
  1 133 99      21.50000000       0.10000000
  1 133 100      18.00000000       0.10000000
  1 133 101      18.00000000       0.10000000
  1 133 102      17.00000000       0.10000000
  1 133 103      16.00000000       0.10000000
  1 133 104      16.00000000       0.10000000
  1 133 105      16.00000000       0.10000000
  1 133 106      16.00000000       0.10000000
  1 133 107      16.00000000       0.10000000
  1 133 108      16.00000000       0.10000000
  1 133 109      16.00000000       0.10000000
  1 133 110      13.50000000       0.10000000