BEGIN options
  SAVE_FLOWS
END options

BEGIN dimensions
  MAXBOUND  20129
END dimensions

BEGIN period  1
  1 6 225       5.63000011       0.01000000
  1 6 226       8.52000046       0.01000000
  1 6 227       8.22000027       0.01000000
  1 6 228       9.14000034       0.01000000
  1 6 229      19.77000046       0.01000000
  1 6 230      22.20000076       0.01000000
  1 6 231       8.64000034       0.01000000
  1 6 232       2.30999994       0.01000000
  1 6 233       1.14000010       0.01000000
  1 6 234      -1.50000000       0.01000000
  1 7 225      24.05999947       0.01000000
  1 7 226      36.74000168       0.01000000
  1 7 227      37.20000076       0.01000000
  1 7 228      39.36000061       0.01000000
  1 7 229      37.15000153       0.01000000
  1 7 230      43.20000076       0.01000000
  1 7 231      46.08000183       0.01000000
  1 7 232      48.95000076       0.01000000
  1 7 233      34.09000015       0.01000000
  1 7 234      10.27999973       0.01000000
  1 7 235      -0.43000001       0.01000000
  1 8 224      22.44000053       0.01000000
  1 8 225      24.71999931       0.01000000
  1 8 226      36.86000061       0.01000000
  1 8 227      37.15999985       0.01000000
  1 8 228      37.97000122       0.01000000
  1 8 229      37.11000061       0.01000000
  1 8 230      46.06000137       0.01000000
  1 8 231      45.08000183       0.01000000
  1 8 232      46.83000183       0.01000000
  1 8 233      50.56000137       0.01000000
  1 8 234      48.61000061       0.01000000
  1 8 235      29.76000023       0.01000000
  1 9 224       7.60000038       0.01000000
  1 9 225      32.36000061       0.01000000
  1 9 226      36.90999985       0.01000000
  1 9 227      36.00000000       0.01000000
  1 9 228      36.40999985       0.01000000
  1 9 229      33.86000061       0.01000000
  1 9 230      37.00000000       0.01000000
  1 9 231      44.95000076       0.01000000
  1 9 232      44.99000168       0.01000000
  1 9 233      48.25000000       0.01000000
  1 9 234      47.77000046       0.01000000
  1 9 235      46.02000046       0.01000000
  1 9 236      50.34000015       0.01000000
  1 9 237      53.65000153       0.01000000
  1 10 225       9.30000019       0.01000000
  1 10 226      38.18000031       0.01000000
  1 10 227      40.40000153       0.01000000
  1 10 228      41.79000092       0.01000000
  1 10 229      45.61000061       0.01000000
  1 10 230      41.31000137       0.01000000
  1 10 231      38.70000076       0.01000000
  1 10 232      45.58000183       0.01000000
  1 10 233      46.52000046       0.01000000
  1 10 234      49.88000107       0.01000000
  1 10 235      52.65999985       0.01000000
  1 10 236      53.50000000       0.01000000
  1 10 237      53.65000153       0.01000000
  1 10 238      53.81000137       0.01000000
  1 10 239      48.77000046       0.01000000
  1 10 240      47.68000031       0.01000000
  1 11 225      21.27000046       0.01000000
  1 11 226      40.38000107       0.01000000
  1 11 227      43.22000122       0.01000000
  1 11 228      46.65000153       0.01000000
  1 11 229      47.40999985       0.01000000
  1 11 230      43.36000061       0.01000000
  1 11 231      45.34000015       0.01000000
  1 11 232      48.45000076       0.01000000
  1 11 233      53.49000168       0.01000000
  1 11 234      46.88000107       0.01000000
  1 11 235      51.20000076       0.01000000
  1 11 236      55.33000183       0.01000000
  1 11 237      54.70000076       0.01000000
  1 11 238      56.13000107       0.01000000
  1 11 239      47.11000061       0.01000000
  1 11 240      42.86000061       0.01000000
  1 11 241      44.11000061       0.01000000
  1 12 225      17.05999947       0.01000000
  1 12 226      41.24000168       0.01000000
  1 12 227      45.00000000       0.01000000
  1 12 228      47.86000061       0.01000000
  1 12 229      45.13000107       0.01000000
  1 12 230      49.09000015       0.01000000
  1 12 231      53.58000183       0.01000000
  1 12 232      44.36000061       0.01000000
  1 12 233      48.20000076       0.01000000
  1 12 234      48.95000076       0.01000000
  1 12 235      48.59000015       0.01000000
  1 12 236      48.09000015       0.01000000
  1 12 237      42.70000076       0.01000000
  1 12 238      37.20000076       0.01000000
  1 12 239      41.56000137       0.01000000
  1 12 240      45.25000000       0.01000000
  1 12 241      45.70000076       0.01000000
  1 13 225      -1.05000000       0.01000000
  1 13 226      43.54000092       0.01000000
  1 13 227      44.61000061       0.01000000
  1 13 228      47.95000076       0.01000000
  1 13 229      47.68000031       0.01000000
  1 13 230      46.54000092       0.01000000
  1 13 231      43.88000107       0.01000000
  1 13 232      47.84000015       0.01000000
  1 13 233      39.56000137       0.01000000
  1 13 234      42.65000153       0.01000000
  1 13 235      48.56000137       0.01000000
  1 13 236      44.06000137       0.01000000
  1 13 237      41.65000153       0.01000000
  1 13 238      43.13000107       0.01000000
  1 13 239      37.88000107       0.01000000
  1 13 240      44.09000015       0.01000000
  1 13 241      45.54000092       0.01000000
  1 13 242      39.27000046       0.01000000
  1 13 243      35.20000076       0.01000000
  1 14 226      19.12000084       0.01000000
  1 14 227      45.34000015       0.01000000
  1 14 228      46.72000122       0.01000000
  1 14 229      47.56000137       0.01000000
  1 14 230      47.77000046       0.01000000
  1 14 231      44.36000061       0.01000000
  1 14 232      41.72000122       0.01000000
  1 14 233      41.25000000       0.01000000
  1 14 234      47.18000031       0.01000000
  1 14 235      50.33000183       0.01000000
  1 14 236      49.81000137       0.01000000
  1 14 237      55.63000107       0.01000000
  1 14 238      53.15000153       0.01000000
  1 14 239      43.43000031       0.01000000
  1 14 240      43.06000137       0.01000000
  1 14 241      45.68000031       0.01000000
  1 14 242      44.36000061       0.01000000
  1 14 243      39.47000122       0.01000000
  1 15 227      25.52000046       0.01000000
  1 15 228      43.40999985       0.01000000
  1 15 229      46.54000092       0.01000000
  1 15 230      45.95000076       0.01000000
  1 15 231      43.72000122       0.01000000
  1 15 232      37.24000168       0.01000000
  1 15 233      38.20000076       0.01000000
  1 15 234      41.65000153       0.01000000
  1 15 235      43.04000092       0.01000000
  1 15 236      52.81000137       0.01000000
  1 15 237      55.33000183       0.01000000
  1 15 238      47.18000031       0.01000000
  1 15 239      37.24000168       0.01000000
  1 15 240      36.45000076       0.01000000
  1 15 241      44.13000107       0.01000000
  1 15 242      38.50000000       0.01000000
  1 15 243      43.79000092       0.01000000
  1 16 228      44.18000031       0.01000000
  1 16 229      44.25000000       0.01000000
  1 16 230      44.79000092       0.01000000
  1 16 231      40.49000168       0.01000000
  1 16 232      32.27000046       0.01000000
  1 16 233      38.79000092       0.01000000
  1 16 234      39.34000015       0.01000000
  1 16 235      41.68000031       0.01000000
  1 16 236      48.31000137       0.01000000
  1 16 237      43.15000153       0.01000000
  1 16 238      36.43000031       0.01000000
  1 16 239      31.18000031       0.01000000
  1 16 240      24.03000069       0.01000000
  1 16 241      25.77000046       0.01000000
  1 16 242      34.65999985       0.01000000
  1 16 243      46.00000000       0.01000000
  1 17 229      27.37999916       0.01000000
  1 17 230      31.43000031       0.01000000
  1 17 231      34.74000168       0.01000000
  1 17 232      24.39999962       0.01000000
  1 17 233      36.20000076       0.01000000
  1 17 234      38.47000122       0.01000000
  1 17 235      39.83000183       0.01000000
  1 17 236      32.70000076       0.01000000
  1 17 237      27.37000084       0.01000000
  1 17 238      33.49000168       0.01000000
  1 17 239      28.36000061       0.01000000
  1 17 240      18.78000069       0.01000000
  1 17 241      26.38999939       0.01000000
  1 17 242      42.74000168       0.01000000
  1 17 243      47.36000061       0.01000000
  1 18 231      19.79000092       0.01000000
  1 18 232      23.53000069       0.01000000
  1 18 233      11.97999954       0.01000000
  1 18 234      19.21999931       0.01000000
  1 18 235      35.33000183       0.01000000
  1 18 236      24.31999969       0.01000000
  1 18 237      20.38999939       0.01000000
  1 18 238      15.51000023       0.01000000
  1 18 239      25.64999962       0.01000000
  1 18 240      33.06000137       0.01000000
  1 18 241      36.90000153       0.01000000
  1 18 242      44.74000168       0.01000000
  1 19 230      33.88000107       0.01000000
  1 19 231      25.52000046       0.01000000
  1 19 232      20.63999939       0.01000000
  1 19 233      18.87000084       0.01000000
  1 19 234       4.86000013       0.01000000
  1 19 235      20.79999924       0.01000000
  1 19 236      12.31000042       0.01000000
  1 19 237       9.60000038       0.01000000
  1 19 238      14.92000008       0.01000000
  1 19 239      27.62000084       0.01000000
  1 19 240      29.79999924       0.01000000
  1 19 241      36.95000076       0.01000000
  1 19 242      45.81000137       0.01000000
  1 20 230      29.05999947       0.01000000
  1 20 231      23.04000092       0.01000000
  1 20 232      20.94000053       0.01000000
  1 20 233       6.82000017       0.01000000
  1 20 234       0.52999997       0.01000000
  1 20 235       1.00000000       0.01000000
  1 20 236      -0.93000000       0.01000000
  1 20 237       0.46000004       0.01000000
  1 20 238      13.13000011       0.01000000
  1 20 239      45.29000092       0.01000000
  1 20 240      48.15000153       0.01000000
  1 20 241      28.53000069       0.01000000
  1 20 242       1.02999997       0.01000000
  1 21 231      15.06999969       0.01000000
  1 21 232       8.35000038       0.01000000
  1 21 233       4.92000008       0.01000000
  1 21 234      10.64000034       0.01000000
  1 21 239       0.89999998       0.01000000
  1 21 240       1.19000006       0.01000000
  1 21 241       0.29999995       0.01000000
  1 21 242       0.87000000       0.01000000
  1 22 232      18.55999947       0.01000000
  1 22 233      25.18000031       0.01000000
  1 22 240       0.03999996       0.01000000
  1 22 241       0.65999997       0.01000000
  1 23 235       4.92000008       0.01000000
  1 23 240      -0.20999998       0.01000000
  1 23 241       1.25000000       0.01000000
  1 24 240      -0.24000001       0.01000000
  1 24 241      -0.25999999       0.01000000
  1 25 231      -0.38000000       0.01000000
  1 25 240       0.14999998       0.01000000
  1 25 241       0.19000006       0.01000000
  1 26 240      -0.06999999       0.01000000
  1 26 241       0.40999997       0.01000000
  1 27 240      -0.06999999       0.01000000
  1 28 240       0.48000002       0.01000000
  1 29 240      -0.06999999       0.01000000
  1 30 239       0.84000003       0.01000000
  1 30 240      -0.93000000       0.01000000
  1 31 238       0.66999996       0.01000000
  1 31 239       0.65999997       0.01000000
  1 31 240       1.38000011       0.01000000
  1 32 238       4.09000015       0.01000000
  1 32 239       1.25000000       0.01000000
  1 32 240       0.88000000       0.01000000
  1 33 237       1.88000011       0.01000000
  1 33 238      -0.44999999       0.01000000
  1 33 239       1.38000011       0.01000000
  1 33 240       2.09999990       0.01000000
  1 34 236       1.17000008       0.01000000
  1 34 237       2.15000010       0.01000000
  1 34 238      -0.56000000       0.01000000
  1 34 239       1.57999992       0.01000000
  1 35 236       4.90000010       0.01000000
  1 35 237       1.99000001       0.01000000
  1 35 238      -0.56000000       0.01000000
  1 35 239       2.24000001       0.01000000
  1 36 235       1.92000008       0.01000000
  1 36 236       1.25000000       0.01000000
  1 36 237       0.66999996       0.01000000
  1 36 238       0.60000002       0.01000000
  1 36 239      -0.56000000       0.01000000
  1 37 234       1.34999990       0.01000000
  1 37 235       0.32000005       0.01000000
  1 37 236      -0.93000000       0.01000000
  1 37 237      -0.93000000       0.01000000
  1 37 238      -0.93000000       0.01000000
  1 37 239      -0.93000000       0.01000000
  1 38 214      -0.69999999       0.01000000
  1 38 233       1.13000011       0.01000000
  1 38 234       0.75999999       0.01000000
  1 38 235       0.49000001       0.01000000
  1 38 236      -0.93000000       0.01000000
  1 38 237      -0.93000000       0.01000000
  1 38 238      -0.93000000       0.01000000
  1 38 239       0.45000005       0.01000000
  1 39 212       1.43000007       0.01000000
  1 39 213      -0.75000000       0.01000000
  1 39 233       0.96000004       0.01000000
  1 39 234       0.25999999       0.01000000
  1 39 235      -0.93000000       0.01000000
  1 39 236       0.25000000       0.01000000
  1 39 237       0.07000005       0.01000000
  1 39 238       0.94000006       0.01000000
  1 40 210       0.50000000       0.01000000
  1 40 211      -0.69999999       0.01000000
  1 40 212      -0.69999999       0.01000000
  1 40 213      -0.69999999       0.01000000
  1 40 232       1.25999999       0.01000000
  1 40 233       0.33000004       0.01000000
  1 40 234      -0.93000000       0.01000000
  1 40 235      -0.13999999       0.01000000
  1 40 236      -0.93000000       0.01000000
  1 40 237       0.94000006       0.01000000
  1 40 238       1.59999990       0.01000000
  1 41 208       3.09000015       0.01000000
  1 41 209      -0.69999999       0.01000000
  1 41 210      -0.69999999       0.01000000
  1 41 211      -0.69999999       0.01000000
  1 41 231      -0.93000000       0.01000000
  1 41 232       0.97000003       0.01000000
  1 41 233      -0.93000000       0.01000000
  1 41 234      -0.93000000       0.01000000
  1 41 235       0.87000000       0.01000000
  1 41 236      -0.48000002       0.01000000
  1 41 237       0.59000003       0.01000000
  1 41 238       1.20000005       0.01000000
  1 42 206       2.83999991       0.01000000
  1 42 207      -0.69999999       0.01000000
  1 42 231       1.22000003       0.01000000
  1 42 232       0.20000005       0.01000000
  1 42 233      -0.93000000       0.01000000
  1 42 234       0.45000005       0.01000000
  1 42 235       0.65999997       0.01000000
  1 42 236       0.73000002       0.01000000
  1 42 237       1.03999996       0.01000000
  1 42 238       2.30999994       0.01000000
  1 43 203      10.72999954       0.01000000
  1 43 204       4.59000015       0.01000000
  1 43 205      -0.79000001       0.01000000
  1 43 206      -0.79000001       0.01000000
  1 43 231       5.44000006       0.01000000
  1 43 232      -0.93000000       0.01000000
  1 43 233      -0.93000000       0.01000000
  1 43 234       0.38000000       0.01000000
  1 43 235       0.53999996       0.01000000
  1 43 236       0.87000000       0.01000000
  1 43 237       1.00999999       0.01000000
  1 43 238       2.17000008       0.01000000
  1 44 200       2.42000008       0.01000000
  1 44 201       4.00000000       0.01000000
  1 44 202      -0.25000000       0.01000000
  1 44 203      -0.38000000       0.01000000
  1 44 204      -0.66000000       0.01000000
  1 44 205      -0.72999999       0.01000000
  1 44 228      -0.93000000       0.01000000
  1 44 231       0.00000000       0.01000000
  1 44 232       0.98000002       0.01000000
  1 44 233      -0.93000000       0.01000000
  1 44 234      -0.93000000       0.01000000
  1 44 235       0.70000005       0.01000000
  1 44 236       0.74000001       0.01000000
  1 44 237       0.84000003       0.01000000
  1 44 238       0.24000001       0.01000000
  1 45 197       3.98000002       0.01000000
  1 45 198      -0.18000001       0.01000000
  1 45 199      -0.80000000       0.01000000
  1 45 200      -0.25000000       0.01000000
  1 45 201      -0.69000000       0.01000000
  1 45 202      -0.72999999       0.01000000
  1 45 203      -0.72999999       0.01000000
  1 45 204      -0.75000000       0.01000000
  1 45 228      -0.77000000       0.01000000
  1 45 231      -0.93000000       0.01000000
  1 45 232       1.27999997       0.01000000
  1 45 233       0.49000001       0.01000000
  1 45 234      -0.59000000       0.01000000
  1 45 235       1.03999996       0.01000000
  1 45 236       0.91999996       0.01000000
  1 45 237       1.03999996       0.01000000
  1 46 194      15.54000092       0.01000000
  1 46 195      12.60000038       0.01000000
  1 46 196       8.09000015       0.01000000
  1 46 197       1.71000004       0.01000000
  1 46 198      -0.31000000       0.01000000
  1 46 199      -0.80000000       0.01000000
  1 46 200      -0.80000000       0.01000000
  1 46 201      -0.80000000       0.01000000
  1 46 228       0.50999999       0.01000000
  1 46 233       0.77999997       0.01000000
  1 46 234       1.25000000       0.01000000
  1 46 235       0.66999996       0.01000000
  1 46 236       1.05999994       0.01000000
  1 46 237       1.39000010       0.01000000
  1 47 191       5.07000017       0.01000000
  1 47 192       5.17000008       0.01000000
  1 47 193       8.25000000       0.01000000
  1 47 194       9.68999958       0.01000000
  1 47 195       7.27999973       0.01000000
  1 47 196       4.82000017       0.01000000
  1 47 197       0.39999998       0.01000000
  1 47 198      -0.80000000       0.01000000
  1 47 199      -0.80000000       0.01000000
  1 47 200      -0.80000000       0.01000000
  1 47 232       0.52999997       0.01000000
  1 47 233       2.31999993       0.01000000
  1 47 234       0.38000000       0.01000000
  1 47 235       1.20000005       0.01000000
  1 47 236       1.34999990       0.01000000
  1 47 237       5.05000019       0.01000000
  1 48 188      14.52999973       0.01000000
  1 48 189       2.78999996       0.01000000
  1 48 190       1.00000000       0.01000000
  1 48 191       0.54999995       0.01000000
  1 48 192       1.81999993       0.01000000
  1 48 193       3.17000008       0.01000000
  1 48 194       3.94000006       0.01000000
  1 48 195       2.83999991       0.01000000
  1 48 196       1.28999996       0.01000000
  1 48 197      -0.43000001       0.01000000
  1 48 198      -0.69999999       0.01000000
  1 48 199      -0.59000000       0.01000000
  1 48 227       0.73000002       0.01000000
  1 48 234       3.07000017       0.01000000
  1 48 235       0.63999999       0.01000000
  1 48 236       1.30999994       0.01000000
  1 48 237       1.07999992       0.01000000
  1 49 185      13.44999981       0.01000000
  1 49 186       9.64999962       0.01000000
  1 49 187      12.35999966       0.01000000
  1 49 188       4.75000000       0.01000000
  1 49 189       1.52999997       0.01000000
  1 49 190       0.51999998       0.01000000
  1 49 191       0.37000000       0.01000000
  1 49 192       0.19000006       0.01000000
  1 49 193      -0.45999998       0.01000000
  1 49 194      -0.20999998       0.01000000
  1 49 195      -0.48000002       0.01000000
  1 49 196      -0.38999999       0.01000000
  1 49 197      -0.83000000       0.01000000
  1 49 198      -0.50999999       0.01000000
  1 49 226      -0.38999999       0.01000000
  1 49 231      -0.26999998       0.01000000
  1 49 232       0.37000000       0.01000000
  1 49 234       0.71000004       0.01000000
  1 49 235       0.87000000       0.01000000
  1 49 236       1.25000000       0.01000000
  1 49 237       1.41000009       0.01000000
  1 50 184      14.53999996       0.01000000
  1 50 185      11.48999977       0.01000000
  1 50 186       7.56999969       0.01000000
  1 50 187       5.34000015       0.01000000
  1 50 188       2.78999996       0.01000000
  1 50 189       0.52999997       0.01000000
  1 50 190       0.23000002       0.01000000
  1 50 191       0.36000001       0.01000000
  1 50 192      -0.13000000       0.01000000
  1 50 193      -0.25999999       0.01000000
  1 50 194       0.44000006       0.01000000
  1 50 195      -0.56999999       0.01000000
  1 50 196      -0.83000000       0.01000000
  1 50 197      -0.83000000       0.01000000
  1 50 198      -0.79000001       0.01000000
  1 50 231      -0.02999997       0.01000000
  1 50 232       0.63000000       0.01000000
  1 50 234       0.54999995       0.01000000
  1 50 235       0.13000000       0.01000000
  1 50 236       1.00000000       0.01000000
  1 50 237       1.77999997       0.01000000
  1 51 184       9.98999977       0.01000000
  1 51 185       8.31000042       0.01000000
  1 51 186       6.03000021       0.01000000
  1 51 187       2.92000008       0.01000000
  1 51 188       0.86000001       0.01000000
  1 51 189      -0.17000002       0.01000000
  1 51 190      -0.19000000       0.01000000
  1 51 191      -0.23000002       0.01000000
  1 51 192      -0.56000000       0.01000000
  1 51 193      -0.48000002       0.01000000
  1 51 194      -0.79000001       0.01000000
  1 51 195      -0.56000000       0.01000000
  1 51 196      -1.00000000       0.01000000
  1 51 197      -0.91000000       0.01000000
  1 51 231      -0.06999999       0.01000000
  1 51 234       0.96000004       0.01000000
  1 51 235       0.39999998       0.01000000
  1 51 236       1.48000002       0.01000000
  1 52 183       6.69000006       0.01000000
  1 52 184       4.38000011       0.01000000
  1 52 185       4.03000021       0.01000000
  1 52 186       3.05000019       0.01000000
  1 52 187       2.43000007       0.01000000
  1 52 188       0.36000001       0.01000000
  1 52 189      -0.19000000       0.01000000
  1 52 190      -0.63000000       0.01000000
  1 52 191      -0.84999999       0.01000000
  1 52 192      -0.72000000       0.01000000
  1 52 193      -0.77000000       0.01000000
  1 52 194      -0.59999999       0.01000000
  1 52 195      -0.98000000       0.01000000
  1 52 196      -0.84999999       0.01000000
  1 52 197      -0.59999999       0.01000000
  1 52 230      -0.91000000       0.01000000
  1 52 231      -0.14999998       0.01000000
  1 52 234       0.63999999       0.01000000
  1 52 235       0.38999999       0.01000000
  1 52 236       2.44000006       0.01000000
  1 53 182      12.27999973       0.01000000
  1 53 183       5.90000010       0.01000000
  1 53 184       3.96000004       0.01000000
  1 53 185       0.79999995       0.01000000
  1 53 186       0.62000000       0.01000000
  1 53 187      -0.45999998       0.01000000
  1 53 188      -0.45999998       0.01000000
  1 53 189      -0.89000000       0.01000000
  1 53 190      -1.05000000       0.01000000
  1 53 191      -0.84999999       0.01000000
  1 53 192      -0.53000000       0.01000000
  1 53 193      -1.12000000       0.01000000
  1 53 194      -1.02000000       0.01000000
  1 53 195      -0.77000000       0.01000000
  1 53 196      -0.90000000       0.01000000
  1 53 197      -0.81999999       0.01000000
  1 53 229       0.04999995       0.01000000
  1 53 230       2.09999990       0.01000000
  1 53 231      -0.02999997       0.01000000
  1 53 232       0.01999998       0.01000000
  1 53 234       0.50000000       0.01000000
  1 53 235       0.41999996       0.01000000
  1 53 236       1.85999990       0.01000000
  1 54 181      13.76000023       0.01000000
  1 54 182       9.06999969       0.01000000
  1 54 183       2.98000002       0.01000000
  1 54 184       1.24000001       0.01000000
  1 54 185      -0.19000000       0.01000000
  1 54 186      -0.59000000       0.01000000
  1 54 187      -0.48000002       0.01000000
  1 54 188      -0.80000000       0.01000000
  1 54 189      -0.69999999       0.01000000
  1 54 190      -0.75000000       0.01000000
  1 54 191      -0.59999999       0.01000000
  1 54 192      -1.07000000       0.01000000
  1 54 193      -1.07000000       0.01000000
  1 54 194      -0.80000000       0.01000000
  1 54 195      -0.80000000       0.01000000
  1 54 196      -1.02000000       0.01000000
  1 54 227       0.34000003       0.01000000
  1 54 228       1.29999995       0.01000000
  1 54 229       0.10000002       0.01000000
  1 54 230       0.01999998       0.01000000
  1 54 231       0.00999999       0.01000000
  1 54 232       0.65999997       0.01000000
  1 54 233       0.52999997       0.01000000
  1 54 234       0.35000002       0.01000000
  1 54 235       0.87000000       0.01000000
  1 54 236       2.20000005       0.01000000
  1 55 180      15.71999931       0.01000000
  1 55 181      10.19999981       0.01000000
  1 55 182       7.52000046       0.01000000
  1 55 183       0.98000002       0.01000000
  1 55 184      -0.39999998       0.01000000
  1 55 185      -0.53000000       0.01000000
  1 55 186      -0.33999997       0.01000000
  1 55 187      -0.45999998       0.01000000
  1 55 188      -0.75000000       0.01000000
  1 55 189      -0.66999999       0.01000000
  1 55 190      -0.90000000       0.01000000
  1 55 191      -1.01000000       0.01000000
  1 55 192      -1.10000000       0.01000000
  1 55 193      -1.10000000       0.01000000
  1 55 194      -0.80000000       0.01000000
  1 55 195      -0.80000000       0.01000000
  1 55 231      -0.44999999       0.01000000
  1 55 234       0.54999995       0.01000000
  1 55 235       1.39000010       0.01000000
  1 55 236       2.24000001       0.01000000
  1 56 179      21.36000061       0.01000000
  1 56 180      13.77999973       0.01000000
  1 56 181       9.90999985       0.01000000
  1 56 182       5.55000019       0.01000000
  1 56 183       3.80000019       0.01000000
  1 56 184       0.04999995       0.01000000
  1 56 185       0.40999997       0.01000000
  1 56 186      -0.02999997       0.01000000
  1 56 187      -0.44000000       0.01000000
  1 56 188      -0.38999999       0.01000000
  1 56 189      -0.77000000       0.01000000
  1 56 190      -0.66000000       0.01000000
  1 56 191      -0.86000000       0.01000000
  1 56 192      -1.07000000       0.01000000
  1 56 193      -0.90000000       0.01000000
  1 56 194      -1.02000000       0.01000000
  1 56 199      -0.93000000       0.01000000
  1 56 200      -0.33999997       0.01000000
  1 56 234       2.04999995       0.01000000
  1 56 235       2.25000000       0.01000000
  1 56 236       2.04999995       0.01000000
  1 57 178      29.56999969       0.01000000
  1 57 179      14.44999981       0.01000000
  1 57 180      12.19999981       0.01000000
  1 57 181      10.27999973       0.01000000
  1 57 182       7.35000038       0.01000000
  1 57 183       3.42000008       0.01000000
  1 57 184       1.75999999       0.01000000
  1 57 185       0.58000004       0.01000000
  1 57 186       0.71000004       0.01000000
  1 57 187       0.25000000       0.01000000
  1 57 188       1.53999996       0.01000000
  1 57 189       1.85999990       0.01000000
  1 57 190       1.21000004       0.01000000
  1 57 191       0.11000001       0.01000000
  1 57 192       0.37000000       0.01000000
  1 57 193      -1.05000000       0.01000000
  1 57 194      -0.79000001       0.01000000
  1 57 195      -0.79000001       0.01000000
  1 57 198       0.34000003       0.01000000
  1 57 199      -0.84999999       0.01000000
  1 57 200      -0.72000000       0.01000000
  1 57 201      -0.89000000       0.01000000
  1 57 226      -0.43000001       0.01000000
  1 57 234       0.23000002       0.01000000
  1 57 235       5.11000013       0.01000000
  1 57 236       2.38000011       0.01000000
  1 58 174      34.86999893       0.01000000
  1 58 175      29.51000023       0.01000000
  1 58 176      26.92000008       0.01000000
  1 58 177      20.96999931       0.01000000
  1 58 178      23.20999908       0.01000000
  1 58 179      14.77999973       0.01000000
  1 58 180      11.84000015       0.01000000
  1 58 181       9.21000004       0.01000000
  1 58 182       7.97000027       0.01000000
  1 58 183       4.28000021       0.01000000
  1 58 184       3.13000011       0.01000000
  1 58 185       2.93000007       0.01000000
  1 58 186       2.73000002       0.01000000
  1 58 187       1.52999997       0.01000000
  1 58 188       3.25000000       0.01000000
  1 58 189       1.68000007       0.01000000
  1 58 190      -0.30000001       0.01000000
  1 58 191      -0.53999999       0.01000000
  1 58 192      -0.63000000       0.01000000
  1 58 193      -0.06999999       0.01000000
  1 58 194      -0.30000001       0.01000000
  1 58 195       0.62000000       0.01000000
  1 58 196      -0.56999999       0.01000000
  1 58 197      -0.30000001       0.01000000
  1 58 198      -0.84999999       0.01000000
  1 58 199      -0.84999999       0.01000000
  1 58 200      -0.89000000       0.01000000
  1 58 225       1.10999990       0.01000000
  1 58 226      -0.06000000       0.01000000
  1 58 232       0.35000002       0.01000000
  1 58 233       0.38999999       0.01000000
  1 58 234       0.71000004       0.01000000
  1 58 235       2.25000000       0.01000000
  1 58 236       2.47000003       0.01000000
  1 59 174      29.70000076       0.01000000
  1 59 175      26.54000092       0.01000000
  1 59 176      23.56999969       0.01000000
  1 59 177      19.56999969       0.01000000
  1 59 178      20.36000061       0.01000000
  1 59 179      15.51000023       0.01000000
  1 59 180      10.89999962       0.01000000
  1 59 181       8.72000027       0.01000000
  1 59 182       7.64999962       0.01000000
  1 59 183       5.86000013       0.01000000
  1 59 184       3.92000008       0.01000000
  1 59 185       4.44000006       0.01000000
  1 59 186       3.26000023       0.01000000
  1 59 187       1.70000005       0.01000000
  1 59 188       1.97000003       0.01000000
  1 59 189       0.00000000       0.01000000
  1 59 190       0.13999999       0.01000000
  1 59 191       1.25000000       0.01000000
  1 59 192       0.49000001       0.01000000
  1 59 193      -0.23000002       0.01000000