BEGIN options
  SAVE_FLOWS
END options

BEGIN dimensions
  MAXBOUND  27333
END dimensions

BEGIN period  1
  1 7 254       7.43000031       0.01000000
  1 7 255       7.81000042       0.01000000
  1 7 256       8.22999954       0.01000000
  1 7 257      12.22000027       0.01000000
  1 7 258      19.77000046       0.01000000
  1 7 259      22.35000038       0.01000000
  1 7 260       8.64000034       0.01000000
  1 7 261       2.97000003       0.01000000
  1 7 262       1.24000001       0.01000000
  1 8 253      15.22999954       0.01000000
  1 8 254      30.92000008       0.01000000
  1 8 255      34.09000015       0.01000000
  1 8 256      38.45000076       0.01000000
  1 8 257      35.97000122       0.01000000
  1 8 258      37.58000183       0.01000000
  1 8 259      40.79000092       0.01000000
  1 8 260      46.54000092       0.01000000
  1 8 261      47.84000015       0.01000000
  1 8 262      21.04000092       0.01000000
  1 8 263       1.74000001       0.01000000
  1 8 264       1.18000007       0.01000000
  1 9 252      12.43999958       0.01000000
  1 9 253      20.95000076       0.01000000
  1 9 254      36.86000061       0.01000000
  1 9 255      35.90000153       0.01000000
  1 9 256      38.11000061       0.01000000
  1 9 257      38.34000015       0.01000000
  1 9 258      39.02000046       0.01000000
  1 9 259      46.90000153       0.01000000
  1 9 260      45.65000153       0.01000000
  1 9 261      48.68000031       0.01000000
  1 9 262      49.50000000       0.01000000
  1 9 263      51.11000061       0.01000000
  1 9 264      19.61000061       0.01000000
  1 10 252      20.97999954       0.01000000
  1 10 253      36.95000076       0.01000000
  1 10 254      36.65000153       0.01000000
  1 10 255      38.27000046       0.01000000
  1 10 256      34.99000168       0.01000000
  1 10 257      35.56000137       0.01000000
  1 10 258      34.54000092       0.01000000
  1 10 259      42.24000168       0.01000000
  1 10 260      44.84000015       0.01000000
  1 10 261      43.79000092       0.01000000
  1 10 262      46.68000031       0.01000000
  1 10 263      49.27000046       0.01000000
  1 10 264      46.75000000       0.01000000
  1 10 265      45.33000183       0.01000000
  1 11 253      10.55000019       0.01000000
  1 11 254      36.56000137       0.01000000
  1 11 255      37.81000137       0.01000000
  1 11 256      38.04000092       0.01000000
  1 11 257      38.22000122       0.01000000
  1 11 258      35.56000137       0.01000000
  1 11 259      33.86000061       0.01000000
  1 11 260      38.61000061       0.01000000
  1 11 261      42.31000137       0.01000000
  1 11 262      43.09000015       0.01000000
  1 11 263      48.70000076       0.01000000
  1 11 264      48.34000015       0.01000000
  1 11 265      48.27000046       0.01000000
  1 11 266      51.83000183       0.01000000
  1 11 267      53.70000076       0.01000000
  1 11 268      53.54000092       0.01000000
  1 12 253       6.94000006       0.01000000
  1 12 254      18.04000092       0.01000000
  1 12 255      37.95000076       0.01000000
  1 12 256      41.52000046       0.01000000
  1 12 257      43.47000122       0.01000000
  1 12 258      45.61000061       0.01000000
  1 12 259      43.38000107       0.01000000
  1 12 260      38.70000076       0.01000000
  1 12 261      44.00000000       0.01000000
  1 12 262      47.22000122       0.01000000
  1 12 263      45.15000153       0.01000000
  1 12 264      51.31000137       0.01000000
  1 12 265      52.97000122       0.01000000
  1 12 266      53.50000000       0.01000000
  1 12 267      54.25000000       0.01000000
  1 12 268      53.81000137       0.01000000
  1 12 269      49.18000031       0.01000000
  1 12 270      48.29000092       0.01000000
  1 12 271      45.54000092       0.01000000
  1 13 253      10.47999954       0.01000000
  1 13 254      40.49000168       0.01000000
  1 13 255      39.09000015       0.01000000
  1 13 256      44.86000061       0.01000000
  1 13 257      47.77000046       0.01000000
  1 13 258      47.40999985       0.01000000
  1 13 259      44.29000092       0.01000000
  1 13 260      45.34000015       0.01000000
  1 13 261      47.88000107       0.01000000
  1 13 262      54.11000061       0.01000000
  1 13 263      50.50000000       0.01000000
  1 13 264      44.54000092       0.01000000
  1 13 265      51.25000000       0.01000000
  1 13 266      55.33000183       0.01000000
  1 13 267      54.38000107       0.01000000
  1 13 268      56.13000107       0.01000000
  1 13 269      51.11000061       0.01000000
  1 13 270      44.45000076       0.01000000
  1 13 271      43.15000153       0.01000000
  1 13 272      43.27000046       0.01000000
  1 14 253      11.38000011       0.01000000
  1 14 254      38.70000076       0.01000000
  1 14 255      41.09000015       0.01000000
  1 14 256      46.15000153       0.01000000
  1 14 257      46.93000031       0.01000000
  1 14 258      46.70000076       0.01000000
  1 14 259      49.75000000       0.01000000
  1 14 260      51.40000153       0.01000000
  1 14 261      45.36000061       0.01000000
  1 14 262      47.72000122       0.01000000
  1 14 263      50.22000122       0.01000000
  1 14 264      48.70000076       0.01000000
  1 14 265      46.61000061       0.01000000
  1 14 266      49.97000122       0.01000000
  1 14 267      43.24000168       0.01000000
  1 14 268      41.47000122       0.01000000
  1 14 269      42.34000015       0.01000000
  1 14 270      45.81000137       0.01000000
  1 14 271      45.70000076       0.01000000
  1 14 272      43.56000137       0.01000000
  1 15 254      32.34000015       0.01000000
  1 15 255      42.02000046       0.01000000
  1 15 256      45.65000153       0.01000000
  1 15 257      47.49000168       0.01000000
  1 15 258      47.50000000       0.01000000
  1 15 259      43.88000107       0.01000000
  1 15 260      52.59000015       0.01000000
  1 15 261      50.86000061       0.01000000
  1 15 262      41.45000076       0.01000000
  1 15 263      42.86000061       0.01000000
  1 15 264      47.84000015       0.01000000
  1 15 265      45.34000015       0.01000000
  1 15 266      42.45000076       0.01000000
  1 15 267      38.49000168       0.01000000
  1 15 268      36.49000168       0.01000000
  1 15 269      34.79000092       0.01000000
  1 15 270      44.02000046       0.01000000
  1 15 271      46.08000183       0.01000000
  1 15 272      40.47000122       0.01000000
  1 15 273      36.25000000       0.01000000
  1 16 254      10.68999958       0.01000000
  1 16 255      42.45000076       0.01000000
  1 16 256      45.97000122       0.01000000
  1 16 257      47.99000168       0.01000000
  1 16 258      48.22000122       0.01000000
  1 16 259      48.43000031       0.01000000
  1 16 260      44.95000076       0.01000000
  1 16 261      42.97000122       0.01000000
  1 16 262      44.13000107       0.01000000
  1 16 263      43.00000000       0.01000000
  1 16 264      47.63000107       0.01000000
  1 16 265      48.70000076       0.01000000
  1 16 266      46.68000031       0.01000000
  1 16 267      48.15999985       0.01000000
  1 16 268      49.84000015       0.01000000
  1 16 269      44.70000076       0.01000000
  1 16 270      39.72000122       0.01000000
  1 16 271      44.93000031       0.01000000
  1 16 272      44.65999985       0.01000000
  1 16 273      40.11000061       0.01000000
  1 16 274      36.90000153       0.01000000
  1 17 255      14.47000027       0.01000000
  1 17 256      47.45000076       0.01000000
  1 17 257      46.54000092       0.01000000
  1 17 258      46.59000015       0.01000000
  1 17 259      46.56000137       0.01000000
  1 17 260      44.81000137       0.01000000
  1 17 261      39.61000061       0.01000000
  1 17 262      40.90999985       0.01000000
  1 17 263      43.08000183       0.01000000
  1 17 264      51.90999985       0.01000000
  1 17 265      50.75000000       0.01000000
  1 17 266      51.97000122       0.01000000
  1 17 267      56.20000076       0.01000000
  1 17 268      53.50000000       0.01000000
  1 17 269      48.04000092       0.01000000
  1 17 270      43.77000046       0.01000000
  1 17 271      46.83000183       0.01000000
  1 17 272      45.93000031       0.01000000
  1 17 273      44.90000153       0.01000000
  1 17 274      41.56000137       0.01000000
  1 18 256      34.20000076       0.01000000
  1 18 257      47.00000000       0.01000000
  1 18 258      46.54000092       0.01000000
  1 18 259      46.15000153       0.01000000
  1 18 260      43.72000122       0.01000000
  1 18 261      38.43000031       0.01000000
  1 18 262      37.61000061       0.01000000
  1 18 263      39.38000107       0.01000000
  1 18 264      42.27000046       0.01000000
  1 18 265      47.25000000       0.01000000
  1 18 266      52.81000137       0.01000000
  1 18 267      54.90999985       0.01000000
  1 18 268      47.18000031       0.01000000
  1 18 269      40.34000015       0.01000000
  1 18 270      36.97000122       0.01000000
  1 18 271      43.20000076       0.01000000
  1 18 272      41.88000107       0.01000000
  1 18 273      39.54000092       0.01000000
  1 18 274      45.09000015       0.01000000
  1 19 256      35.75000000       0.01000000
  1 19 257      43.29000092       0.01000000
  1 19 258      44.25000000       0.01000000
  1 19 259      44.68000031       0.01000000
  1 19 260      40.49000168       0.01000000
  1 19 261      32.99000168       0.01000000
  1 19 262      38.54000092       0.01000000
  1 19 263      39.40000153       0.01000000
  1 19 264      40.90000153       0.01000000
  1 19 265      42.81000137       0.01000000
  1 19 266      48.31000137       0.01000000
  1 19 267      40.72000122       0.01000000
  1 19 268      36.43000031       0.01000000
  1 19 269      36.18000031       0.01000000
  1 19 270      25.31999969       0.01000000
  1 19 271      22.20999908       0.01000000
  1 19 272      34.00000000       0.01000000
  1 19 273      40.50000000       0.01000000
  1 19 274      46.75000000       0.01000000
  1 20 257      27.94000053       0.01000000
  1 20 258      32.88000107       0.01000000
  1 20 259      40.36000061       0.01000000
  1 20 260      35.84000015       0.01000000
  1 20 261      29.29999924       0.01000000
  1 20 262      35.59000015       0.01000000
  1 20 263      39.90999985       0.01000000
  1 20 264      41.61000061       0.01000000
  1 20 265      40.00000000       0.01000000
  1 20 266      34.68000031       0.01000000
  1 20 267      29.92000008       0.01000000
  1 20 268      35.86000061       0.01000000
  1 20 269      38.15000153       0.01000000
  1 20 270      20.87000084       0.01000000
  1 20 271      21.45999908       0.01000000
  1 20 272      29.76000023       0.01000000
  1 20 273      44.72000122       0.01000000
  1 20 274      47.18000031       0.01000000
  1 21 260      22.81999969       0.01000000
  1 21 261      18.34000015       0.01000000
  1 21 262      18.61000061       0.01000000
  1 21 263      26.87000084       0.01000000
  1 21 264      36.90000153       0.01000000
  1 21 265      37.27000046       0.01000000
  1 21 266      26.61000061       0.01000000
  1 21 267      19.28000069       0.01000000
  1 21 268      19.45000076       0.01000000
  1 21 269      23.95000076       0.01000000
  1 21 270      24.87000084       0.01000000
  1 21 271      30.45000076       0.01000000
  1 21 272      38.40999985       0.01000000
  1 21 273      46.20000076       0.01000000
  1 22 260      20.13999939       0.01000000
  1 22 261      20.45000076       0.01000000
  1 22 262      20.45000076       0.01000000
  1 22 263       8.96000004       0.01000000
  1 22 264      21.43000031       0.01000000
  1 22 265      28.92000008       0.01000000
  1 22 266      16.71999931       0.01000000
  1 22 267      14.68999958       0.01000000
  1 22 268      16.92000008       0.01000000
  1 22 269      19.54000092       0.01000000
  1 22 270      33.58000183       0.01000000
  1 22 271      34.83000183       0.01000000
  1 22 272      44.08000183       0.01000000
  1 22 273      46.40000153       0.01000000
  1 23 260      29.97999954       0.01000000
  1 23 261      25.46999931       0.01000000
  1 23 262      10.52000046       0.01000000
  1 23 263       7.02000046       0.01000000
  1 23 264       3.69000006       0.01000000
  1 23 265       9.39999962       0.01000000
  1 23 266       5.17000008       0.01000000
  1 23 267       3.71000004       0.01000000
  1 23 268      10.59000015       0.01000000
  1 23 269      27.94000053       0.01000000
  1 23 270      42.86000061       0.01000000
  1 23 271      45.29000092       0.01000000
  1 23 272      43.79000092       0.01000000
  1 23 273      21.62000084       0.01000000
  1 24 260      23.04000092       0.01000000
  1 24 261      19.69000053       0.01000000
  1 24 262      11.97000027       0.01000000
  1 24 263       4.73000002       0.01000000
  1 24 264      -0.44000000       0.01000000
  1 24 265      -0.27999997       0.01000000
  1 24 266      -0.93000000       0.01000000
  1 24 267       1.05999994       0.01000000
  1 24 268      13.13000011       0.01000000
  1 24 269      27.46999931       0.01000000
  1 24 270      47.13000107       0.01000000
  1 24 271      33.72000122       0.01000000
  1 24 272      14.72000027       0.01000000
  1 24 273       1.56999993       0.01000000
  1 25 260      15.06999969       0.01000000
  1 25 261      10.02999973       0.01000000
  1 25 262       5.17000008       0.01000000
  1 25 263       9.43000031       0.01000000
  1 25 264       1.32999992       0.01000000
  1 25 268      -0.93000000       0.01000000
  1 25 269       1.25999999       0.01000000
  1 25 270       1.34999990       0.01000000
  1 25 271       0.73000002       0.01000000
  1 25 272       1.08999991       0.01000000
  1 26 261      16.96999931       0.01000000
  1 26 262      13.31000042       0.01000000
  1 26 263      23.62000084       0.01000000
  1 26 270       1.09999990       0.01000000
  1 26 271       1.33999991       0.01000000
  1 26 272       0.09000003       0.01000000
  1 27 270      -0.93000000       0.01000000
  1 27 271       1.00999999       0.01000000
  1 27 272       0.65999997       0.01000000
  1 28 270      -0.14999998       0.01000000
  1 28 271      -0.06999999       0.01000000
  1 28 272       0.28999996       0.01000000
  1 29 270      -0.33999997       0.01000000
  1 29 271      -0.19999999       0.01000000
  1 30 260      -0.38000000       0.01000000
  1 30 270       0.00000000       0.01000000
  1 30 271       0.01999998       0.01000000
  1 31 270      -0.08999997       0.01000000
  1 31 271      -0.13000000       0.01000000
  1 32 270      -0.25000000       0.01000000
  1 32 271       0.35000002       0.01000000
  1 33 270      -0.13000000       0.01000000
  1 33 271       0.41999996       0.01000000
  1 34 270       0.07000005       0.01000000
  1 35 270       0.44000006       0.01000000
  1 36 269       1.05999994       0.01000000
  1 36 270       0.32000005       0.01000000
  1 37 268       0.66999996       0.01000000
  1 37 269       1.42000008       0.01000000
  1 37 270       1.00000000       0.01000000
  1 38 268       1.33999991       0.01000000
  1 38 269       0.83000004       0.01000000
  1 38 270       0.94000006       0.01000000
  1 39 267       1.33999991       0.01000000
  1 39 268       1.92000008       0.01000000
  1 39 269      -0.20999998       0.01000000
  1 39 270       1.75000000       0.01000000
  1 40 267       2.50999999       0.01000000
  1 40 268       1.08999991       0.01000000
  1 40 269       0.50000000       0.01000000
  1 40 270       1.94000006       0.01000000
  1 41 266       3.44000006       0.01000000
  1 41 267       0.50000000       0.01000000
  1 41 268       1.48000002       0.01000000
  1 41 269       1.17000008       0.01000000
  1 41 270       2.29999995       0.01000000
  1 42 265       1.23000002       0.01000000
  1 42 266       4.90000010       0.01000000
  1 42 267       0.25000000       0.01000000
  1 42 268      -0.56000000       0.01000000
  1 42 269       1.50000000       0.01000000
  1 42 270       2.28999996       0.01000000
  1 43 245       6.00000000       0.01000000
  1 43 264      -0.38999999       0.01000000
  1 43 265       1.25999999       0.01000000
  1 43 266       1.25000000       0.01000000
  1 43 267      -0.56000000       0.01000000
  1 43 268       0.60000002       0.01000000
  1 43 269      -0.56000000       0.01000000
  1 44 264       0.83000004       0.01000000
  1 44 265       0.28999996       0.01000000
  1 44 266      -0.93000000       0.01000000
  1 44 267      -0.93000000       0.01000000
  1 44 268       0.74000001       0.01000000
  1 44 269      -0.93000000       0.01000000
  1 45 263       1.00999999       0.01000000
  1 45 264       0.79999995       0.01000000
  1 45 265       1.48000002       0.01000000
  1 45 266      -0.93000000       0.01000000
  1 45 267      -0.93000000       0.01000000
  1 45 268      -0.93000000       0.01000000
  1 45 269      -0.93000000       0.01000000
  1 46 240      -0.59000000       0.01000000
  1 46 241      -0.93000000       0.01000000
  1 46 262       0.87000000       0.01000000
  1 46 263       0.89999998       0.01000000
  1 46 264       0.11000001       0.01000000
  1 46 265      -0.93000000       0.01000000
  1 46 266      -0.93000000       0.01000000
  1 46 267       1.13000011       0.01000000
  1 46 268       0.57000005       0.01000000
  1 46 269       1.65000010       0.01000000
  1 47 239      -0.30000001       0.01000000
  1 47 240      -0.63000000       0.01000000
  1 47 262       0.62000000       0.01000000
  1 47 263       0.11000001       0.01000000
  1 47 264      -0.93000000       0.01000000
  1 47 265      -0.93000000       0.01000000
  1 47 266      -0.93000000       0.01000000
  1 47 267       0.45000005       0.01000000
  1 47 268       1.75000000       0.01000000
  1 47 269       2.02999997       0.01000000
  1 48 237      -0.69999999       0.01000000
  1 48 238      -0.69999999       0.01000000
  1 48 239      -0.69999999       0.01000000
  1 48 240      -0.69999999       0.01000000
  1 48 261       1.68000007       0.01000000
  1 48 262       0.64999998       0.01000000
  1 48 263       0.03999996       0.01000000
  1 48 264      -0.93000000       0.01000000
  1 48 265      -0.93000000       0.01000000
  1 48 266      -0.93000000       0.01000000
  1 48 267       0.94000006       0.01000000
  1 48 268       1.59999990       0.01000000
  1 49 235      -0.69999999       0.01000000
  1 49 236      -0.69999999       0.01000000
  1 49 237      -0.69999999       0.01000000
  1 49 238      -0.69999999       0.01000000
  1 49 261       0.79999995       0.01000000
  1 49 262       0.41999996       0.01000000
  1 49 263      -0.93000000       0.01000000
  1 49 264      -0.93000000       0.01000000
  1 49 265      -0.93000000       0.01000000
  1 49 266      -0.48000002       0.01000000
  1 49 267       0.75000000       0.01000000
  1 49 268       1.20000005       0.01000000
  1 50 233      -0.69999999       0.01000000
  1 50 234      -0.69999999       0.01000000
  1 50 260       1.16000009       0.01000000
  1 50 261       0.40999997       0.01000000
  1 50 262      -0.93000000       0.01000000
  1 50 263      -0.93000000       0.01000000
  1 50 264       0.50000000       0.01000000
  1 50 265       1.00000000       0.01000000
  1 50 266       1.10999990       0.01000000
  1 50 267       0.75000000       0.01000000
  1 50 268       2.21000004       0.01000000
  1 51 231       3.51000023       0.01000000
  1 51 232      -0.49000001       0.01000000
  1 51 260       0.91999996       0.01000000
  1 51 261      -0.27999997       0.01000000
  1 51 262      -0.93000000       0.01000000
  1 51 263      -0.93000000       0.01000000
  1 51 264      -0.13999999       0.01000000
  1 51 265       0.71000004       0.01000000
  1 51 266       0.71000004       0.01000000
  1 51 267       0.99000001       0.01000000
  1 51 268       2.03999996       0.01000000
  1 52 228       7.81000042       0.01000000
  1 52 229       3.17000008       0.01000000
  1 52 230      -0.36000001       0.01000000
  1 52 231      -0.75000000       0.01000000
  1 52 257       0.88999999       0.01000000
  1 52 260       0.24000001       0.01000000
  1 52 261       0.10000002       0.01000000
  1 52 262      -0.93000000       0.01000000
  1 52 263      -0.18000001       0.01000000
  1 52 264      -0.93000000       0.01000000
  1 52 265       0.59000003       0.01000000
  1 52 266       1.00000000       0.01000000
  1 52 267       1.41000009       0.01000000
  1 52 268       2.64000010       0.01000000
  1 53 225      -0.13000000       0.01000000
  1 53 226       0.13000000       0.01000000
  1 53 227      -0.19000000       0.01000000
  1 53 228      -0.38999999       0.01000000
  1 53 229      -0.56999999       0.01000000
  1 53 230      -0.75000000       0.01000000
  1 53 257       0.46000004       0.01000000
  1 53 260       0.04999995       0.01000000
  1 53 261      13.46000004       0.01000000
  1 53 262      -0.93000000       0.01000000
  1 53 263       0.21000004       0.01000000
  1 53 264      -0.93000000       0.01000000
  1 53 265       0.75999999       0.01000000
  1 53 266       1.06999993       0.01000000
  1 53 267       1.65000010       0.01000000
  1 53 268       1.05999994       0.01000000
  1 54 222       2.42000008       0.01000000
  1 54 223      -0.18000001       0.01000000
  1 54 224      -0.80000000       0.01000000
  1 54 225      -0.75000000       0.01000000
  1 54 226      -0.72000000       0.01000000
  1 54 227      -0.95000000       0.01000000
  1 54 228      -0.72999999       0.01000000
  1 54 229      -0.72999999       0.01000000
  1 54 230      -0.75000000       0.01000000
  1 54 257       0.69000006       0.01000000
  1 54 261       1.53999996       0.01000000
  1 54 262      -0.93000000       0.01000000
  1 54 263       0.53999996       0.01000000
  1 54 264       0.70000005       0.01000000
  1 54 265       1.63000011       0.01000000
  1 54 266       0.91999996       0.01000000
  1 54 267       1.19000006       0.01000000
  1 55 219      14.02999973       0.01000000
  1 55 220      11.47000027       0.01000000
  1 55 221       7.06999969       0.01000000
  1 55 222       0.75000000       0.01000000
  1 55 223      -0.31000000       0.01000000
  1 55 224      -0.80000000       0.01000000
  1 55 225      -0.80000000       0.01000000
  1 55 226      -0.80000000       0.01000000
  1 55 227      -0.80000000       0.01000000
  1 55 257       0.36000001       0.01000000
  1 55 262       4.98000002       0.01000000
  1 55 263       1.25999999       0.01000000
  1 55 264       0.87000000       0.01000000
  1 55 265       0.79999995       0.01000000
  1 55 266       1.05999994       0.01000000
  1 55 267       2.22000003       0.01000000
  1 56 216       5.23000002       0.01000000
  1 56 217       8.06000042       0.01000000
  1 56 218      10.10000038       0.01000000
  1 56 219      10.64000034       0.01000000
  1 56 220       7.39000034       0.01000000
  1 56 221       4.82000017       0.01000000
  1 56 222       0.15999997       0.01000000
  1 56 223      -0.80000000       0.01000000
  1 56 224      -0.80000000       0.01000000
  1 56 225      -0.80000000       0.01000000
  1 56 226      -0.80000000       0.01000000
  1 56 256       0.38999999       0.01000000
  1 56 262       1.19000006       0.01000000
  1 56 263       3.96000004       0.01000000
  1 56 264       0.61000001       0.01000000
  1 56 265       0.87000000       0.01000000
  1 56 266       0.77999997       0.01000000
  1 56 267       2.67000008       0.01000000
  1 57 213      12.25000000       0.01000000
  1 57 214       3.51000023       0.01000000
  1 57 215       2.23000002       0.01000000
  1 57 216       2.49000001       0.01000000
  1 57 217       4.26000023       0.01000000
  1 57 218       5.09000015       0.01000000
  1 57 219       5.03000021       0.01000000
  1 57 220       4.34000015       0.01000000
  1 57 221       1.85999990       0.01000000
  1 57 222      -0.13000000       0.01000000
  1 57 223      -0.69999999       0.01000000
  1 57 224      -0.80000000       0.01000000
  1 57 225      -0.80000000       0.01000000
  1 57 256       0.47000003       0.01000000
  1 57 261       0.29999995       0.01000000
  1 57 262       0.79999995       0.01000000
  1 57 263       5.71000004       0.01000000
  1 57 264       0.53999996       0.01000000
  1 57 265       0.97000003       0.01000000
  1 57 266       1.09999990       0.01000000
  1 57 267       1.60999990       0.01000000
  1 58 210       8.92000008       0.01000000
  1 58 211      13.72000027       0.01000000
  1 58 212       4.67000008       0.01000000
  1 58 213       1.49000001       0.01000000
  1 58 214       0.50000000       0.01000000
  1 58 215      -0.25000000       0.01000000
  1 58 216       0.12000000       0.01000000
  1 58 217       1.25000000       0.01000000
  1 58 218       1.47000003       0.01000000
  1 58 219       1.25999999       0.01000000
  1 58 220       0.98000002       0.01000000
  1 58 221      -0.49000001       0.01000000
  1 58 222      -0.83000000       0.01000000
  1 58 223      -0.50999999       0.01000000
  1 58 224      -0.69999999       0.01000000
  1 58 255       0.37000000       0.01000000
  1 58 263       0.79999995       0.01000000
  1 58 264       0.79999995       0.01000000
  1 58 265       0.52999997       0.01000000
  1 58 266       1.30999994       0.01000000
  1 58 267      -0.13000000       0.01000000
  1 59 208      13.39000034       0.01000000
  1 59 209      10.64000034       0.01000000
  1 59 210      13.01000023       0.01000000
  1 59 211       5.61000013       0.01000000
  1 59 212       3.67000008       0.01000000
  1 59 213       1.45000005       0.01000000
  1 59 214       0.11000001       0.01000000
  1 59 215       0.34000003       0.01000000
  1 59 216       0.38999999       0.01000000
  1 59 217      -0.44000000       0.01000000
  1 59 218      -0.33999997       0.01000000
  1 59 219      -0.63999999       0.01000000
  1 59 220      -0.63000000       0.01000000
  1 59 221      -0.63999999       0.01000000
  1 59 222      -0.83000000       0.01000000
  1 59 223      -0.83000000       0.01000000
  1 59 255       0.45000005       0.01000000
  1 59 260      -0.45999998       0.01000000
  1 59 261       0.25999999       0.01000000
  1 59 264       0.97000003       0.01000000
  1 59 265       0.25999999       0.01000000
  1 59 266       1.09999990       0.01000000
  1 59 267       0.08000004       0.01000000
  1 60 208      13.98999977       0.01000000
  1 60 209       9.68999958       0.01000000
  1 60 210       7.06000042       0.01000000
  1 60 211       4.17000008       0.01000000
  1 60 212       2.13000011       0.01000000
  1 60 213       0.52999997       0.01000000
  1 60 214       0.23000002       0.01000000
  1 60 215       0.36000001       0.01000000
  1 60 216      -0.27999997       0.01000000
  1 60 217      -0.38999999       0.01000000
  1 60 218      -0.66000000       0.01000000
  1 60 219      -0.63000000       0.01000000
  1 60 220      -0.53999999       0.01000000
  1 60 221      -0.83000000       0.01000000
  1 60 222      -0.83000000       0.01000000
  1 60 223      -0.79000001       0.01000000
  1 60 260      -0.02999997       0.01000000
  1 60 261       0.28999996       0.01000000
  1 60 264       0.46000004       0.01000000
  1 60 265       0.64999998       0.01000000
  1 60 266       1.00000000       0.01000000
  1 60 267       1.00000000       0.01000000
  1 61 207       9.98999977       0.01000000
  1 61 208       8.64999962       0.01000000
  1 61 209       7.43000031       0.01000000
  1 61 210       5.28000021       0.01000000
  1 61 211       2.43000007       0.01000000
  1 61 212       0.78999996       0.01000000
  1 61 213      -0.17000002       0.01000000
  1 61 214      -0.19000000       0.01000000
  1 61 215      -0.23000002       0.01000000
  1 61 216      -0.38000000       0.01000000
  1 61 217      -0.44000000       0.01000000
  1 61 218      -0.69000000       0.01000000
  1 61 219      -0.72000000       0.01000000
  1 61 220      -0.48000002       0.01000000
  1 61 221      -0.95000000       0.01000000
  1 61 222      -0.91000000       0.01000000
  1 61 260      -0.06999999       0.01000000
  1 61 264       0.38999999       0.01000000
  1 61 265       0.57000005       0.01000000
  1 61 266       1.48000002       0.01000000
  1 62 206       7.31999969       0.01000000
  1 62 207       5.19000006       0.01000000
  1 62 208       4.51000023       0.01000000
  1 62 209       3.92000008       0.01000000
  1 62 210       3.15000010       0.01000000
  1 62 211       1.93000007       0.01000000
  1 62 212      -0.32999998       0.01000000
  1 62 213      -0.43000001       0.01000000
  1 62 214      -0.63000000       0.01000000
  1 62 215      -0.56999999       0.01000000
  1 62 216      -0.56999999       0.01000000
  1 62 217      -0.53999999       0.01000000
  1 62 218      -0.56999999       0.01000000
  1 62 219      -0.89000000       0.01000000
  1 62 220      -0.77000000       0.01000000
  1 62 221      -0.72000000       0.01000000
  1 62 222      -0.95000000       0.01000000
  1 62 259      -0.59999999       0.01000000
  1 62 260       0.00999999       0.01000000
  1 62 264       0.00000000       0.01000000
  1 62 265       0.50000000       0.01000000
  1 62 266       1.92000008       0.01000000
  1 63 205      21.89999962       0.01000000
  1 63 206       8.27000046       0.01000000
  1 63 207       3.71000004       0.01000000
  1 63 208       2.89000010       0.01000000
  1 63 209       2.21000004       0.01000000
  1 63 210       2.48000002       0.01000000
  1 63 211       1.02999997       0.01000000
  1 63 212      -0.66000000       0.01000000
  1 63 213      -0.48000002       0.01000000
  1 63 214      -0.98000000       0.01000000
  1 63 215      -0.84999999       0.01000000