BEGIN griddata
  strt
    INTERNAL  FACTOR  1.0
      9990.00000000    9990.00000000    9990.00000000    9990.00000000    9990.00000000    9990.00000000    9990.00000000    9990.00000000    9990.00000000    9990.00000000    9990.00000000    9990.00000000    9990.00000000    9990.00000000    9990.00000000    9990.00000000    9990.00000000    9990.00000000    9990.00000000    9990.00000000
      9990.00000000    9990.00000000    9990.00000000    9990.00000000    9990.00000000    9990.00000000    9990.00000000    9990.00000000    9990.00000000    9990.00000000    9990.00000000    9990.00000000    9990.00000000    9990.00000000    9990.00000000    9990.00000000    9990.00000000    9990.00000000    9990.00000000    9990.00000000
      9990.00000000    9990.00000000    9990.00000000    9990.00000000    9990.00000000    9990.00000000    9990.00000000    9990.00000000    9990.00000000    9990.00000000    9990.00000000    9990.00000000    9990.00000000    9990.00000000    9990.00000000    9990.00000000    9990.00000000    9990.00000000    9990.00000000    9990.00000000
      9990.00000000    9990.00000000    9990.00000000    9990.00000000    9990.00000000    9990.00000000    9990.00000000    9990.00000000    9990.00000000    9990.00000000    9990.00000000    9990.00000000    9990.00000000    9990.00000000    9990.00000000    9990.00000000    9990.00000000    9990.00000000    9990.00000000    9990.00000000
      9990.00000000    9990.00000000    9990.00000000    9990.00000000    9990.00000000    9990.00000000    9990.00000000    9990.00000000    9990.00000000    9990.00000000    9990.00000000    9990.00000000    9990.00000000    9990.00000000    9990.00000000    9990.00000000    9990.00000000    9990.00000000    9990.00000000    9990.00000000
      9990.00000000    9990.00000000    9990.00000000    9990.00000000    9990.00000000    9990.00000000    9990.00000000    9990.00000000    9990.00000000    9990.00000000    9990.00000000    9990.00000000    9990.00000000    9990.00000000    9990.00000000    9990.00000000    9990.00000000    9990.00000000    9990.00000000    9990.00000000
      9990.00000000    9990.00000000    9990.00000000    9990.00000000    9990.00000000    9990.00000000    9990.00000000    9990.00000000    9990.00000000    9990.00000000    9990.00000000    9990.00000000    9990.00000000    9990.00000000    9990.00000000    9990.00000000    9990.00000000    9990.00000000    9990.00000000    9990.00000000
      9990.00000000    9990.00000000    9990.00000000    9990.00000000    9990.00000000    9990.00000000    9990.00000000    9990.00000000    9990.00000000    9990.00000000    9990.00000000    9990.00000000    9990.00000000    9990.00000000    9990.00000000    9990.00000000    9990.00000000    9990.00000000    9990.00000000    9990.00000000
      9990.00000000    9990.00000000    9990.00000000    9990.00000000    9990.00000000    9990.00000000    9990.00000000    9990.00000000    9990.00000000    9990.00000000    9990.00000000    9990.00000000    9990.00000000    9990.00000000    9990.00000000    9990.00000000    9990.00000000    9990.00000000    9990.00000000    9990.00000000
      9990.00000000    9990.00000000    9990.00000000
      9990.00000000    9990.00000000    9990.00000000    9990.00000000    9990.00000000    9990.00000000    9990.00000000    9990.00000000    9990.00000000    9990.00000000    9990.00000000    9990.00000000    9990.00000000    9990.00000000    9990.00000000    9990.00000000    9990.00000000    9990.00000000    9990.00000000    9990.00000000
      9990.00000000    9990.00000000    9990.00000000    9990.00000000    9990.00000000    9990.00000000    9990.00000000    9990.00000000    9990.00000000    9990.00000000    9990.00000000    9990.00000000    9990.00000000    9990.00000000    9990.00000000    9990.00000000    9990.00000000    9990.00000000    9990.00000000    9990.00000000
      9990.00000000    9990.00000000    9990.00000000    9990.00000000    9990.00000000    9990.00000000    9990.00000000    9990.00000000    9990.00000000    9990.00000000    9990.00000000    9990.00000000    9990.00000000    9990.00000000    9990.00000000    9990.00000000    9990.00000000    9990.00000000    9990.00000000    9990.00000000
      9990.00000000    9990.00000000    9990.00000000    9990.00000000    9990.00000000    9990.00000000    9990.00000000    9990.00000000    9990.00000000    9990.00000000    9990.00000000    9990.00000000    9990.00000000    9990.00000000    9990.00000000    9990.00000000    9990.00000000    9990.00000000    9990.00000000    9990.00000000
      9990.00000000    9990.00000000    9990.00000000    9990.00000000    9990.00000000    9990.00000000    9990.00000000    9990.00000000    9990.00000000    9990.00000000    9990.00000000    9990.00000000    9990.00000000    9990.00000000    9990.00000000    9990.00000000    9990.00000000    9990.00000000    9990.00000000    9990.00000000
      9990.00000000    9990.00000000    9990.00000000    9990.00000000    9990.00000000    9990.00000000    9990.00000000    9990.00000000    9990.00000000    9990.00000000    9990.00000000    9990.00000000    9990.00000000    9990.00000000    9990.00000000    9990.00000000    9990.00000000    9990.00000000    9990.00000000    9990.00000000
      9990.00000000    9990.00000000    9990.00000000    9990.00000000    9990.00000000    9990.00000000    9990.00000000    9990.00000000    9990.00000000    9990.00000000    9990.00000000    9990.00000000    9990.00000000    9990.00000000    9990.00000000    9990.00000000    9990.00000000    9990.00000000     -40.90000153    -186.00000000
      -193.10000610    -200.89999390    -209.39999390    -218.60000610    -228.19999695    -238.00000000    -247.80000305    -257.10000610    -265.79998779    -273.39999390    -279.39999390    -283.79998779    -286.20001221    -286.50000000    -284.50000000    -281.00000000    -278.29998779    -277.89999390    -279.29998779    -281.60000610
      -284.29998779    -287.20001221    -290.20001221    -293.29998779    -296.39999390    -299.60000610    -302.79998779    -306.10000610    -309.29998779    -312.50000000    -315.70001221    -318.79998779    -321.89999390    -325.00000000    -328.00000000    -330.89999390    -333.79998779    -336.70001221    -339.60000610    -342.39999390
      -345.10000610    -347.89999390    -350.60000610
      9990.00000000    9990.00000000    9990.00000000    9990.00000000    9990.00000000    9990.00000000    9990.00000000    9990.00000000    9990.00000000    9990.00000000    9990.00000000    9990.00000000    9990.00000000    9990.00000000    9990.00000000    9990.00000000    9990.00000000    9990.00000000    9990.00000000    9990.00000000
      9990.00000000    9990.00000000    9990.00000000    9990.00000000    9990.00000000    9990.00000000    9990.00000000    9990.00000000    9990.00000000    9990.00000000    9990.00000000    9990.00000000    9990.00000000    9990.00000000    9990.00000000    9990.00000000    9990.00000000    9990.00000000    9990.00000000    9990.00000000
      9990.00000000    9990.00000000    9990.00000000    9990.00000000    9990.00000000    9990.00000000    9990.00000000    9990.00000000    9990.00000000    9990.00000000    9990.00000000    9990.00000000    9990.00000000    9990.00000000    9990.00000000    9990.00000000    9990.00000000    9990.00000000    9990.00000000    9990.00000000
      9990.00000000    9990.00000000    9990.00000000    9990.00000000    9990.00000000    9990.00000000    9990.00000000    9990.00000000    9990.00000000    9990.00000000    9990.00000000    9990.00000000    9990.00000000    9990.00000000    9990.00000000    9990.00000000    9990.00000000    9990.00000000    9990.00000000    9990.00000000
      9990.00000000    9990.00000000    9990.00000000    9990.00000000    9990.00000000    9990.00000000    9990.00000000    9990.00000000    9990.00000000    9990.00000000    9990.00000000    9990.00000000    9990.00000000    9990.00000000    9990.00000000    9990.00000000    9990.00000000    9990.00000000    9990.00000000    9990.00000000
      9990.00000000    9990.00000000    9990.00000000    9990.00000000    9990.00000000    9990.00000000    9990.00000000    9990.00000000    9990.00000000    9990.00000000    9990.00000000    9990.00000000    9990.00000000    9990.00000000    9990.00000000    9990.00000000    9990.00000000    9990.00000000    9990.00000000    9990.00000000
      9990.00000000    9990.00000000    9990.00000000    9990.00000000    9990.00000000    9990.00000000    9990.00000000    9990.00000000    9990.00000000    9990.00000000    9990.00000000    9990.00000000    9990.00000000    9990.00000000    9990.00000000    9990.00000000    9990.00000000     -38.70000076    -179.69999695    -186.10000610
      -193.30000305    -201.19999695    -209.89999390    -219.39999390    -229.39999390    -239.60000610    -249.80000305    -259.60000610    -268.70001221    -276.70001221    -283.10000610    -287.79998779    -290.29998779    -290.60000610    -288.29998779    -284.10000610    -280.70001221    -280.00000000    -281.20001221    -283.39999390
      -286.10000610    -289.00000000    -292.00000000    -295.20001221    -298.39999390    -301.70001221    -305.00000000    -308.29998779    -311.60000610    -314.89999390    -318.20001221    -321.39999390    -324.50000000    -327.60000610    -330.70001221    -333.70001221    -336.60000610    -339.50000000    -342.39999390    -345.20001221
      -348.00000000    -350.70001221    -353.39999390
      9990.00000000    9990.00000000    9990.00000000    9990.00000000    9990.00000000    9990.00000000    9990.00000000    9990.00000000    9990.00000000    9990.00000000    9990.00000000    9990.00000000    9990.00000000    9990.00000000    9990.00000000    9990.00000000    9990.00000000    9990.00000000    9990.00000000    9990.00000000
      9990.00000000    9990.00000000    9990.00000000    9990.00000000    9990.00000000    9990.00000000    9990.00000000    9990.00000000    9990.00000000    9990.00000000    9990.00000000    9990.00000000    9990.00000000    9990.00000000    9990.00000000    9990.00000000    9990.00000000    9990.00000000    9990.00000000    9990.00000000
      9990.00000000    9990.00000000    9990.00000000    9990.00000000    9990.00000000    9990.00000000    9990.00000000    9990.00000000    9990.00000000    9990.00000000    9990.00000000    9990.00000000    9990.00000000    9990.00000000    9990.00000000    9990.00000000    9990.00000000    9990.00000000    9990.00000000    9990.00000000
      9990.00000000    9990.00000000    9990.00000000    9990.00000000    9990.00000000    9990.00000000    9990.00000000    9990.00000000    9990.00000000    9990.00000000    9990.00000000    9990.00000000    9990.00000000    9990.00000000    9990.00000000    9990.00000000    9990.00000000    9990.00000000    9990.00000000    9990.00000000
      9990.00000000    9990.00000000    9990.00000000    9990.00000000    9990.00000000    9990.00000000    9990.00000000    9990.00000000    9990.00000000    9990.00000000    9990.00000000    9990.00000000    9990.00000000    9990.00000000    9990.00000000    9990.00000000    9990.00000000    9990.00000000    9990.00000000    9990.00000000
      9990.00000000    9990.00000000    9990.00000000    9990.00000000    9990.00000000    9990.00000000    9990.00000000    9990.00000000    9990.00000000    9990.00000000    9990.00000000    9990.00000000    9990.00000000    9990.00000000    9990.00000000    9990.00000000    9990.00000000    9990.00000000    9990.00000000    9990.00000000
      9990.00000000    9990.00000000    9990.00000000    9990.00000000    9990.00000000    9990.00000000    9990.00000000    9990.00000000    9990.00000000    9990.00000000    9990.00000000    9990.00000000    9990.00000000    9990.00000000    9990.00000000     -26.70000076     -32.70000076     -38.50000000    -179.80000305    -186.19999695
      -193.39999390    -201.50000000    -210.50000000    -220.19999695    -230.60000610    -241.19999695    -251.89999390    -262.20001221    -271.70001221    -280.10000610    -286.89999390    -291.89999390    -294.79998779    -295.10000610    -292.60000610    -288.00000000    -283.89999390    -282.79998779    -283.60000610    -285.60000610
      -288.20001221    -291.10000610    -294.10000610    -297.29998779    -300.60000610    -304.00000000    -307.39999390    -310.79998779    -314.10000610    -317.50000000    -320.79998779    -324.00000000    -327.20001221    -330.29998779    -333.39999390    -336.39999390    -339.39999390    -342.29998779    -345.20001221    -348.00000000
      -350.79998779    -353.60000610    -356.29998779
      9990.00000000    9990.00000000    9990.00000000    9990.00000000    9990.00000000    9990.00000000    9990.00000000    9990.00000000    9990.00000000    9990.00000000    9990.00000000    9990.00000000    9990.00000000    9990.00000000    9990.00000000    9990.00000000    9990.00000000    9990.00000000    9990.00000000    9990.00000000
      9990.00000000    9990.00000000    9990.00000000    9990.00000000    9990.00000000    9990.00000000    9990.00000000    9990.00000000    9990.00000000    9990.00000000    9990.00000000    9990.00000000    9990.00000000    9990.00000000    9990.00000000    9990.00000000    9990.00000000    9990.00000000    9990.00000000    9990.00000000
      9990.00000000    9990.00000000    9990.00000000    9990.00000000    9990.00000000    9990.00000000    9990.00000000    9990.00000000    9990.00000000    9990.00000000    9990.00000000    9990.00000000    9990.00000000    9990.00000000    9990.00000000    9990.00000000    9990.00000000    9990.00000000    9990.00000000    9990.00000000
      9990.00000000    9990.00000000    9990.00000000    9990.00000000    9990.00000000    9990.00000000    9990.00000000    9990.00000000    9990.00000000    9990.00000000    9990.00000000    9990.00000000    9990.00000000    9990.00000000    9990.00000000    9990.00000000    9990.00000000    9990.00000000    9990.00000000    9990.00000000
      9990.00000000    9990.00000000    9990.00000000    9990.00000000    9990.00000000    9990.00000000    9990.00000000    9990.00000000    9990.00000000    9990.00000000    9990.00000000    9990.00000000    9990.00000000    9990.00000000    9990.00000000    9990.00000000    9990.00000000    9990.00000000    9990.00000000    9990.00000000
      9990.00000000    9990.00000000    9990.00000000    9990.00000000    9990.00000000    9990.00000000    9990.00000000    9990.00000000    9990.00000000    9990.00000000    9990.00000000    9990.00000000    9990.00000000    9990.00000000    9990.00000000    9990.00000000    9990.00000000    9990.00000000    9990.00000000    9990.00000000
      9990.00000000    9990.00000000    9990.00000000    9990.00000000    9990.00000000    9990.00000000    9990.00000000    9990.00000000    9990.00000000    9990.00000000    9990.00000000    9990.00000000    9990.00000000     -21.70000076     -22.50000000     -25.70000076     -32.70000076     -38.70000076    -180.00000000    -186.39999390
      -193.60000610    -201.80000305    -211.00000000    -221.10000610    -231.80000305    -242.89999390    -254.00000000    -264.79998779    -274.79998779    -283.70001221    -291.00000000    -296.39999390    -299.60000610    -300.29998779    -297.89999390    -292.79998779    -288.00000000    -286.50000000    -287.00000000    -288.60000610
      -290.89999390    -293.60000610    -296.60000610    -299.79998779    -303.10000610    -306.50000000    -310.00000000    -313.39999390    -316.79998779    -320.20001221    -323.60000610    -326.89999390    -330.10000610    -333.20001221    -336.29998779    -339.39999390    -342.29998779    -345.29998779    -348.10000610    -351.00000000
      -353.79998779    -356.50000000    -359.20001221
      9990.00000000    9990.00000000    9990.00000000    9990.00000000    9990.00000000    9990.00000000    9990.00000000    9990.00000000    9990.00000000    9990.00000000    9990.00000000    9990.00000000    9990.00000000    9990.00000000    9990.00000000    9990.00000000    9990.00000000    9990.00000000    9990.00000000    9990.00000000
      9990.00000000    9990.00000000    9990.00000000    9990.00000000    9990.00000000    9990.00000000    9990.00000000    9990.00000000    9990.00000000    9990.00000000    9990.00000000    9990.00000000    9990.00000000    9990.00000000    9990.00000000    9990.00000000    9990.00000000    9990.00000000    9990.00000000    9990.00000000
      9990.00000000    9990.00000000    9990.00000000    9990.00000000    9990.00000000    9990.00000000    9990.00000000    9990.00000000    9990.00000000    9990.00000000    9990.00000000    9990.00000000    9990.00000000    9990.00000000    9990.00000000    9990.00000000    9990.00000000    9990.00000000    9990.00000000    9990.00000000
      9990.00000000    9990.00000000    9990.00000000    9990.00000000    9990.00000000    9990.00000000    9990.00000000    9990.00000000    9990.00000000    9990.00000000    9990.00000000    9990.00000000    9990.00000000    9990.00000000    9990.00000000    9990.00000000    9990.00000000    9990.00000000    9990.00000000    9990.00000000
      9990.00000000    9990.00000000    9990.00000000    9990.00000000    9990.00000000    9990.00000000    9990.00000000    9990.00000000    9990.00000000    9990.00000000    9990.00000000    9990.00000000    9990.00000000    9990.00000000    9990.00000000    9990.00000000    9990.00000000    9990.00000000    9990.00000000    9990.00000000
      9990.00000000    9990.00000000    9990.00000000    9990.00000000    9990.00000000    9990.00000000    9990.00000000    9990.00000000    9990.00000000    9990.00000000    9990.00000000    9990.00000000    9990.00000000    9990.00000000    9990.00000000    9990.00000000    9990.00000000    9990.00000000    9990.00000000    9990.00000000
      9990.00000000    9990.00000000    9990.00000000    9990.00000000    9990.00000000    9990.00000000    9990.00000000    9990.00000000    9990.00000000    9990.00000000     -19.00000000     -17.79999924     -19.20000076     -19.89999962     -21.29999924     -25.89999962     -32.59999847     -38.79999924    -180.19999695    -186.50000000
      -193.80000305    -202.10000610    -211.50000000    -221.89999390    -233.10000610    -244.60000610    -256.20001221    -267.50000000    -278.00000000    -287.39999390    -295.10000610    -300.89999390    -304.60000610    -305.60000610    -303.60000610    -298.20001221    -292.70001221    -290.60000610    -290.50000000    -291.79998779
      -293.79998779    -296.39999390    -299.29998779    -302.50000000    -305.79998779    -309.20001221    -312.70001221    -316.20001221    -319.60000610    -323.10000610    -326.39999390    -329.79998779    -333.00000000    -336.20001221    -339.29998779    -342.29998779    -345.29998779    -348.20001221    -351.10000610    -354.00000000
      -356.70001221    -359.50000000    -362.20001221
      9990.00000000    9990.00000000    9990.00000000    9990.00000000    9990.00000000    9990.00000000    9990.00000000    9990.00000000    9990.00000000    9990.00000000    9990.00000000    9990.00000000    9990.00000000    9990.00000000    9990.00000000    9990.00000000    9990.00000000    9990.00000000    9990.00000000    9990.00000000
      9990.00000000    9990.00000000    9990.00000000    9990.00000000    9990.00000000    9990.00000000    9990.00000000    9990.00000000    9990.00000000    9990.00000000    9990.00000000    9990.00000000    9990.00000000    9990.00000000    9990.00000000    9990.00000000    9990.00000000    9990.00000000    9990.00000000    9990.00000000
      9990.00000000    9990.00000000    9990.00000000    9990.00000000    9990.00000000    9990.00000000    9990.00000000    9990.00000000    9990.00000000    9990.00000000    9990.00000000    9990.00000000    9990.00000000    9990.00000000    9990.00000000    9990.00000000    9990.00000000    9990.00000000    9990.00000000    9990.00000000
      9990.00000000    9990.00000000    9990.00000000    9990.00000000    9990.00000000    9990.00000000    9990.00000000    9990.00000000    9990.00000000    9990.00000000    9990.00000000    9990.00000000    9990.00000000    9990.00000000    9990.00000000    9990.00000000    9990.00000000    9990.00000000    9990.00000000    9990.00000000
      9990.00000000    9990.00000000    9990.00000000    9990.00000000    9990.00000000    9990.00000000    9990.00000000    9990.00000000    9990.00000000    9990.00000000    9990.00000000    9990.00000000    9990.00000000    9990.00000000    9990.00000000    9990.00000000    9990.00000000    9990.00000000    9990.00000000    9990.00000000
      9990.00000000    9990.00000000    9990.00000000    9990.00000000    9990.00000000    9990.00000000    9990.00000000    9990.00000000    9990.00000000    9990.00000000    9990.00000000    9990.00000000    9990.00000000    9990.00000000    9990.00000000    9990.00000000    9990.00000000    9990.00000000    9990.00000000    9990.00000000
      9990.00000000    9990.00000000    9990.00000000    9990.00000000    9990.00000000    9990.00000000    9990.00000000     -15.70000076     -16.29999924     -16.79999924     -16.10000038     -17.50000000     -17.79999924     -18.10000038     -21.79999924     -24.50000000     -32.40000153     -38.90000153    -180.60000610    -186.80000305
      -194.00000000    -202.50000000    -212.10000610    -222.80000305    -234.39999390    -246.39999390    -258.39999390    -270.20001221    -281.29998779    -291.10000610    -299.29998779    -305.50000000    -309.60000610    -311.10000610    -309.60000610    -304.70001221    -298.50000000    -295.50000000    -294.70001221    -295.39999390
      -297.20001221    -299.60000610    -302.29998779    -305.39999390    -308.70001221    -312.20001221    -315.70001221    -319.20001221    -322.60000610    -326.10000610    -329.50000000    -332.79998779    -336.10000610    -339.29998779    -342.39999390    -345.39999390    -348.39999390    -351.29998779    -354.20001221    -357.00000000
      -359.79998779    -362.50000000    -365.20001221
      9990.00000000    9990.00000000    9990.00000000    9990.00000000    9990.00000000    9990.00000000    9990.00000000    9990.00000000    9990.00000000    9990.00000000    9990.00000000    9990.00000000    9990.00000000    9990.00000000    9990.00000000    9990.00000000    9990.00000000    9990.00000000    9990.00000000    9990.00000000
      9990.00000000    9990.00000000    9990.00000000    9990.00000000    9990.00000000    9990.00000000    9990.00000000    9990.00000000    9990.00000000    9990.00000000    9990.00000000    9990.00000000    9990.00000000    9990.00000000    9990.00000000    9990.00000000    9990.00000000    9990.00000000    9990.00000000    9990.00000000
      9990.00000000    9990.00000000    9990.00000000    9990.00000000    9990.00000000    9990.00000000    9990.00000000    9990.00000000    9990.00000000    9990.00000000    9990.00000000    9990.00000000    9990.00000000    9990.00000000    9990.00000000    9990.00000000    9990.00000000    9990.00000000    9990.00000000    9990.00000000
      9990.00000000    9990.00000000    9990.00000000    9990.00000000    9990.00000000    9990.00000000    9990.00000000    9990.00000000    9990.00000000    9990.00000000    9990.00000000    9990.00000000    9990.00000000    9990.00000000    9990.00000000    9990.00000000    9990.00000000    9990.00000000    9990.00000000    9990.00000000
      9990.00000000    9990.00000000    9990.00000000    9990.00000000    9990.00000000    9990.00000000    9990.00000000    9990.00000000    9990.00000000    9990.00000000    9990.00000000    9990.00000000    9990.00000000    9990.00000000    9990.00000000    9990.00000000    9990.00000000    9990.00000000    9990.00000000    9990.00000000
      9990.00000000    9990.00000000    9990.00000000    9990.00000000    9990.00000000    9990.00000000    9990.00000000    9990.00000000    9990.00000000    9990.00000000    9990.00000000    9990.00000000    9990.00000000    9990.00000000    9990.00000000    9990.00000000    9990.00000000    9990.00000000    9990.00000000    9990.00000000
      9990.00000000    9990.00000000    9990.00000000    9990.00000000      -9.60000038     -12.39999962     -14.39999962     -15.00000000     -13.39999962     -14.89999962     -15.79999924     -14.69999981     -16.20000076     -19.29999924     -21.00000000     -24.89999962     -32.50000000    -157.19999695    -180.69999695    -187.10000610
      -194.39999390    -202.89999390    -212.69999695    -223.69999695    -235.69999695    -248.19999695    -260.70001221    -273.00000000    -284.50000000    -294.79998779    -303.39999390    -310.00000000    -314.50000000    -316.29998779    -314.89999390    -309.89999390    -303.79998779    -300.29998779    -299.00000000    -299.39999390
      -300.79998779    -303.00000000    -305.60000610    -308.60000610    -311.89999390    -315.29998779    -318.79998779    -322.29998779    -325.79998779    -329.29998779    -332.70001221    -336.00000000    -339.29998779    -342.39999390    -345.60000610    -348.60000610    -351.60000610    -354.50000000    -357.29998779    -360.10000610
      -362.89999390    -365.60000610    -368.20001221
      9990.00000000    9990.00000000    9990.00000000    9990.00000000    9990.00000000    9990.00000000    9990.00000000    9990.00000000    9990.00000000    9990.00000000    9990.00000000    9990.00000000    9990.00000000    9990.00000000    9990.00000000    9990.00000000    9990.00000000    9990.00000000    9990.00000000    9990.00000000
      9990.00000000    9990.00000000    9990.00000000    9990.00000000    9990.00000000    9990.00000000    9990.00000000    9990.00000000    9990.00000000    9990.00000000    9990.00000000    9990.00000000    9990.00000000    9990.00000000    9990.00000000    9990.00000000    9990.00000000    9990.00000000    9990.00000000    9990.00000000
      9990.00000000    9990.00000000    9990.00000000    9990.00000000    9990.00000000    9990.00000000    9990.00000000    9990.00000000    9990.00000000    9990.00000000    9990.00000000    9990.00000000    9990.00000000    9990.00000000    9990.00000000    9990.00000000    9990.00000000    9990.00000000    9990.00000000    9990.00000000
      9990.00000000    9990.00000000    9990.00000000    9990.00000000    9990.00000000    9990.00000000    9990.00000000    9990.00000000    9990.00000000    9990.00000000    9990.00000000    9990.00000000    9990.00000000    9990.00000000    9990.00000000    9990.00000000    9990.00000000    9990.00000000    9990.00000000    9990.00000000
      9990.00000000    9990.00000000    9990.00000000    9990.00000000    9990.00000000    9990.00000000    9990.00000000    9990.00000000    9990.00000000    9990.00000000    9990.00000000    9990.00000000    9990.00000000    9990.00000000    9990.00000000    9990.00000000    9990.00000000    9990.00000000    9990.00000000    9990.00000000
      9990.00000000    9990.00000000    9990.00000000    9990.00000000    9990.00000000    9990.00000000    9990.00000000    9990.00000000    9990.00000000    9990.00000000    9990.00000000    9990.00000000    9990.00000000    9990.00000000    9990.00000000    9990.00000000    9990.00000000    9990.00000000    9990.00000000    9990.00000000
      9990.00000000      -2.00000000      -6.50000000      -8.80000019     -11.69999981     -11.69999981     -13.19999981     -12.19999981     -13.10000038     -11.60000038     -11.69999981     -15.00000000     -16.89999962     -18.20000076     -21.20000076     -25.39999962     -32.70000076    -155.50000000    -180.60000610    -187.50000000
      -194.69999695    -203.30000305    -213.39999390    -224.69999695    -237.10000610    -250.00000000    -263.00000000    -275.70001221    -287.70001221    -298.50000000    -307.50000000    -314.50000000    -319.10000610    -321.29998779    -319.70001221    -314.29998779    -308.79998779    -305.20001221    -303.50000000    -303.39999390
      -304.60000610    -306.60000610    -309.10000610    -312.00000000    -315.20001221    -318.60000610    -322.10000610    -325.60000610    -329.10000610    -332.60000610    -336.00000000    -339.29998779    -342.50000000    -345.70001221    -348.79998779    -351.79998779    -354.79998779    -357.70001221    -360.50000000    -363.29998779
      -366.00000000    -368.70001221    -371.39999390
      9990.00000000    9990.00000000    9990.00000000    9990.00000000    9990.00000000    9990.00000000    9990.00000000    9990.00000000    9990.00000000    9990.00000000    9990.00000000    9990.00000000    9990.00000000    9990.00000000    9990.00000000    9990.00000000    9990.00000000    9990.00000000    9990.00000000    9990.00000000
      9990.00000000    9990.00000000    9990.00000000    9990.00000000    9990.00000000    9990.00000000    9990.00000000    9990.00000000    9990.00000000    9990.00000000    9990.00000000    9990.00000000    9990.00000000    9990.00000000    9990.00000000    9990.00000000    9990.00000000    9990.00000000    9990.00000000    9990.00000000
      9990.00000000    9990.00000000    9990.00000000    9990.00000000    9990.00000000    9990.00000000    9990.00000000    9990.00000000    9990.00000000    9990.00000000    9990.00000000    9990.00000000    9990.00000000    9990.00000000    9990.00000000    9990.00000000    9990.00000000    9990.00000000    9990.00000000    9990.00000000
      9990.00000000    9990.00000000    9990.00000000    9990.00000000    9990.00000000    9990.00000000    9990.00000000    9990.00000000    9990.00000000    9990.00000000    9990.00000000    9990.00000000    9990.00000000    9990.00000000    9990.00000000    9990.00000000    9990.00000000    9990.00000000    9990.00000000    9990.00000000