BEGIN options
  SAVE_FLOWS
END options

BEGIN dimensions
  MAXBOUND  11997
END dimensions

BEGIN period  1
  1 5 169       7.93000031       0.01000000
  1 5 170       9.64999962       0.01000000
  1 5 171      14.89000034       0.01000000
  1 5 172      26.04000092       0.01000000
  1 5 173      30.28000069       0.01000000
  1 5 174      14.60000038       0.01000000
  1 5 175       0.77999997       0.01000000
  1 5 176      -1.50000000       0.01000000
  1 6 168       8.27000046       0.01000000
  1 6 169      24.42000008       0.01000000
  1 6 170      36.24000168       0.01000000
  1 6 171      37.36000061       0.01000000
  1 6 172      37.65000153       0.01000000
  1 6 173      46.56000137       0.01000000
  1 6 174      47.04000092       0.01000000
  1 6 175      49.40999985       0.01000000
  1 6 176      19.04000092       0.01000000
  1 6 178      -1.00000000       0.01000000
  1 7 168       5.88000011       0.01000000
  1 7 169      36.77000046       0.01000000
  1 7 170      38.09000015       0.01000000
  1 7 171      35.02000046       0.01000000
  1 7 172      35.08000183       0.01000000
  1 7 173      39.50000000       0.01000000
  1 7 174      44.22000122       0.01000000
  1 7 175      46.68000031       0.01000000
  1 7 176      47.84000015       0.01000000
  1 8 169      13.92000008       0.01000000
  1 8 170      37.40000153       0.01000000
  1 8 171      39.13000107       0.01000000
  1 8 172      41.29000092       0.01000000
  1 8 173      37.88000107       0.01000000
  1 8 174      40.81000137       0.01000000
  1 8 175      42.75000000       0.01000000
  1 8 176      50.02000046       0.01000000
  1 8 177      50.11000061       0.01000000
  1 8 178      53.63000107       0.01000000
  1 8 179      51.97000122       0.01000000
  1 9 169      19.30999947       0.01000000
  1 9 170      39.61000061       0.01000000
  1 9 171      44.93000031       0.01000000
  1 9 172      48.18000031       0.01000000
  1 9 173      47.56000137       0.01000000
  1 9 174      46.04000092       0.01000000
  1 9 175      54.15999985       0.01000000
  1 9 176      44.65000153       0.01000000
  1 9 177      51.43000031       0.01000000
  1 9 178      53.77000046       0.01000000
  1 9 179      54.50000000       0.01000000
  1 9 180      42.77000046       0.01000000
  1 9 181      43.65999985       0.01000000
  1 10 169       9.81999969       0.01000000
  1 10 170      41.40000153       0.01000000
  1 10 171      46.40000153       0.01000000
  1 10 172      46.72000122       0.01000000
  1 10 173      44.65000153       0.01000000
  1 10 174      52.29000092       0.01000000
  1 10 175      41.58000183       0.01000000
  1 10 176      48.43000031       0.01000000
  1 10 177      45.65000153       0.01000000
  1 10 178      39.93000031       0.01000000
  1 10 179      35.22000122       0.01000000
  1 10 180      44.36000061       0.01000000
  1 10 181      45.93000031       0.01000000
  1 11 170      40.75000000       0.01000000
  1 11 171      46.09000015       0.01000000
  1 11 172      47.29000092       0.01000000
  1 11 173      47.72000122       0.01000000
  1 11 174      43.27000046       0.01000000
  1 11 175      42.83000183       0.01000000
  1 11 176      48.77000046       0.01000000
  1 11 177      49.54000092       0.01000000
  1 11 178      53.38000107       0.01000000
  1 11 179      50.68000031       0.01000000
  1 11 180      41.47000122       0.01000000
  1 11 181      44.83000183       0.01000000
  1 11 182      44.31000137       0.01000000
  1 11 183      36.29000092       0.01000000
  1 12 171      34.97000122       0.01000000
  1 12 172      47.29000092       0.01000000
  1 12 173      46.45000076       0.01000000
  1 12 174      39.90999985       0.01000000
  1 12 175      38.61000061       0.01000000
  1 12 176      50.43000031       0.01000000
  1 12 177      49.75000000       0.01000000
  1 12 178      57.77000046       0.01000000
  1 12 179      47.38000107       0.01000000
  1 12 180      40.13000107       0.01000000
  1 12 181      45.86000061       0.01000000
  1 12 182      40.09000015       0.01000000
  1 13 171      32.59000015       0.01000000
  1 13 172      44.43000031       0.01000000
  1 13 173      44.40999985       0.01000000
  1 13 174      34.81000137       0.01000000
  1 13 175      38.97000122       0.01000000
  1 13 176      40.11000061       0.01000000
  1 13 177      45.15000153       0.01000000
  1 13 178      41.04000092       0.01000000
  1 13 179      35.27000046       0.01000000
  1 13 180      26.38999939       0.01000000
  1 13 181      20.02000046       0.01000000
  1 13 182      32.79000092       0.01000000
  1 14 172      27.77000046       0.01000000
  1 14 173      24.92000008       0.01000000
  1 14 174      21.12000084       0.01000000
  1 14 175      25.95000076       0.01000000
  1 14 176      38.45000076       0.01000000
  1 14 177      34.31000137       0.01000000
  1 14 178      21.95000076       0.01000000
  1 14 179      24.04000092       0.01000000
  1 14 180      22.42000008       0.01000000
  1 14 181      28.20000076       0.01000000
  1 14 182      44.40000153       0.01000000
  1 15 173      28.60000038       0.01000000
  1 15 174      19.54000092       0.01000000
  1 15 175      19.87000084       0.01000000
  1 15 176      10.31000042       0.01000000
  1 15 177      24.64999962       0.01000000
  1 15 178       9.93999958       0.01000000
  1 15 179      16.54999924       0.01000000
  1 15 180      33.77000046       0.01000000
  1 15 181      34.31000137       0.01000000
  1 15 182      47.11000061       0.01000000
  1 16 173      31.93000031       0.01000000
  1 16 174      23.04999924       0.01000000
  1 16 175       9.51000023       0.01000000
  1 16 176       2.59999990       0.01000000
  1 16 177       4.34000015       0.01000000
  1 16 178       1.06999993       0.01000000
  1 16 179      16.37000084       0.01000000
  1 16 180      48.02000046       0.01000000
  1 16 181      47.49000168       0.01000000
  1 16 182      19.78000069       0.01000000
  1 17 173      17.96999931       0.01000000
  1 17 174      12.77000046       0.01000000
  1 17 175       6.44000006       0.01000000
  1 17 176       2.75000000       0.01000000
  1 17 180       0.97000003       0.01000000
  1 17 181       0.82000005       0.01000000
  1 18 174      15.87000084       0.01000000
  1 18 175      23.77000046       0.01000000
  1 18 181       0.76999998       0.01000000
  1 19 176       6.17000008       0.01000000
  1 19 181      -0.01999998       0.01000000
  1 20 180      -0.00999999       0.01000000
  1 20 181       0.12000000       0.01000000
  1 21 180      -0.19000000       0.01000000
  1 22 180       0.63000000       0.01000000
  1 23 180      -0.25000000       0.01000000
  1 24 180       0.88000000       0.01000000
  1 25 179       0.57000005       0.01000000
  1 25 180       0.96000004       0.01000000
  1 26 179       1.91000009       0.01000000
  1 26 180       1.50000000       0.01000000
  1 27 178       2.79999995       0.01000000
  1 27 179      -0.56000000       0.01000000
  1 27 180       2.18000007       0.01000000
  1 28 177       0.71000004       0.01000000
  1 28 178       0.60000002       0.01000000
  1 28 179       1.06999993       0.01000000
  1 28 180       2.30999994       0.01000000
  1 29 177       0.12000000       0.01000000
  1 29 178      -0.49000001       0.01000000
  1 29 179       0.90999997       0.01000000
  1 30 176       1.16000009       0.01000000
  1 30 177       0.48000002       0.01000000
  1 30 178      -0.93000000       0.01000000
  1 30 179      -0.93000000       0.01000000
  1 31 160      -0.19000000       0.01000000
  1 31 175       1.09999990       0.01000000
  1 31 176       0.00000000       0.01000000
  1 31 177      -0.93000000       0.01000000
  1 31 178      -0.93000000       0.01000000
  1 31 179       1.01999998       0.01000000
  1 32 158       9.93000031       0.01000000
  1 32 159      -0.63000000       0.01000000
  1 32 160      -0.69999999       0.01000000
  1 32 174       0.79999995       0.01000000
  1 32 175       0.52999997       0.01000000
  1 32 176      -0.93000000       0.01000000
  1 32 177      -0.93000000       0.01000000
  1 32 178       0.32000005       0.01000000
  1 32 179       1.96000004       0.01000000
  1 33 156       2.20000005       0.01000000
  1 33 157      -0.69999999       0.01000000
  1 33 158      -0.69999999       0.01000000
  1 33 174       1.21000004       0.01000000
  1 33 175      -0.80000000       0.01000000
  1 33 176      -0.93000000       0.01000000
  1 33 177      -0.93000000       0.01000000
  1 33 178       0.83000004       0.01000000
  1 33 179       2.09999990       0.01000000
  1 34 154       9.02999973       0.01000000
  1 34 155      -0.69999999       0.01000000
  1 34 174       0.65999997       0.01000000
  1 34 175      -0.93000000       0.01000000
  1 34 176       0.57000005       0.01000000
  1 34 177       0.82000005       0.01000000
  1 34 178       0.98000002       0.01000000
  1 35 151       8.10000038       0.01000000
  1 35 152       2.96000004       0.01000000
  1 35 153      -0.43000001       0.01000000
  1 35 154      -0.75000000       0.01000000
  1 35 174       9.93000031       0.01000000
  1 35 175      -0.93000000       0.01000000
  1 35 176      -0.93000000       0.01000000
  1 35 177       1.05999994       0.01000000
  1 35 178       0.74000001       0.01000000
  1 36 148       4.48000002       0.01000000
  1 36 149       0.07000005       0.01000000
  1 36 150      -0.44000000       0.01000000
  1 36 151      -0.56999999       0.01000000
  1 36 152      -0.72999999       0.01000000
  1 36 153      -0.75000000       0.01000000
  1 36 174       1.79999995       0.01000000
  1 36 175       0.03999996       0.01000000
  1 36 176       0.54999995       0.01000000
  1 36 177       0.85000002       0.01000000
  1 36 178       0.87000000       0.01000000
  1 37 145      12.47999954       0.01000000
  1 37 146      14.31000042       0.01000000
  1 37 147       8.06000042       0.01000000
  1 37 148       1.10999990       0.01000000
  1 37 149      -0.80000000       0.01000000
  1 37 150      -0.80000000       0.01000000
  1 37 151      -0.80000000       0.01000000
  1 37 171      -0.93000000       0.01000000
  1 37 175      14.47999954       0.01000000
  1 37 176       1.01999998       0.01000000
  1 37 177       0.99000001       0.01000000
  1 37 178       2.00000000       0.01000000
  1 38 142      15.45000076       0.01000000
  1 38 143       8.25000000       0.01000000
  1 38 144       4.82000017       0.01000000
  1 38 145       5.21000004       0.01000000
  1 38 146       5.90000010       0.01000000
  1 38 147       3.96000004       0.01000000
  1 38 148       0.13000000       0.01000000
  1 38 149      -0.80000000       0.01000000
  1 38 150      -0.80000000       0.01000000
  1 38 171       0.15999997       0.01000000
  1 38 175       2.23000002       0.01000000
  1 38 176       0.72000003       0.01000000
  1 38 177       1.05999994       0.01000000
  1 38 178       1.75000000       0.01000000
  1 39 140       8.93000031       0.01000000
  1 39 141       8.18000031       0.01000000
  1 39 142       2.66000009       0.01000000
  1 39 143       0.35000002       0.01000000
  1 39 144      -0.11000001       0.01000000
  1 39 145       1.26999998       0.01000000
  1 39 146       0.97000003       0.01000000
  1 39 147      -0.50000000       0.01000000
  1 39 148      -0.83000000       0.01000000
  1 39 149      -0.63000000       0.01000000
  1 39 170      -0.13000000       0.01000000
  1 39 174       0.28999996       0.01000000
  1 39 176       0.73000002       0.01000000
  1 39 177       0.66999996       0.01000000
  1 39 178       1.75000000       0.01000000
  1 40 139      12.02999973       0.01000000
  1 40 140       7.43000031       0.01000000
  1 40 141       4.51000023       0.01000000
  1 40 142       1.42000008       0.01000000
  1 40 143       0.28999996       0.01000000
  1 40 144      -0.01999998       0.01000000
  1 40 145      -0.53999999       0.01000000
  1 40 146      -0.59000000       0.01000000
  1 40 147      -0.59000000       0.01000000
  1 40 148      -0.83000000       0.01000000
  1 40 149      -0.59999999       0.01000000
  1 40 174       0.47000003       0.01000000
  1 40 176       0.04999995       0.01000000
  1 40 177       0.45000005       0.01000000
  1 40 178       1.25999999       0.01000000
  1 41 138       9.55000019       0.01000000
  1 41 139       7.30000019       0.01000000
  1 41 140       4.92000008       0.01000000
  1 41 141       1.76999998       0.01000000
  1 41 142       0.33000004       0.01000000
  1 41 143      -0.42000002       0.01000000
  1 41 144      -0.26999998       0.01000000
  1 41 145      -0.69000000       0.01000000
  1 41 146      -0.50999999       0.01000000
  1 41 147      -0.80000000       0.01000000
  1 41 148      -0.72999999       0.01000000
  1 41 173      -0.39999998       0.01000000
  1 41 176       1.22000003       0.01000000
  1 41 177       0.82000005       0.01000000
  1 42 137      14.19999981       0.01000000
  1 42 138       4.46000004       0.01000000
  1 42 139       3.05000019       0.01000000
  1 42 140       3.28000021       0.01000000
  1 42 141       1.43000007       0.01000000
  1 42 142      -0.30000001       0.01000000
  1 42 143      -0.69999999       0.01000000
  1 42 144      -0.66999999       0.01000000
  1 42 145      -0.88000000       0.01000000
  1 42 146      -0.66000000       0.01000000
  1 42 147      -0.98000000       0.01000000
  1 42 148      -0.63999999       0.01000000
  1 42 173      -0.91000000       0.01000000
  1 42 174      -0.30000001       0.01000000
  1 42 176       0.57000005       0.01000000
  1 42 177       1.28999996       0.01000000
  1 43 136      14.68000031       0.01000000
  1 43 137       7.31000042       0.01000000
  1 43 138       3.34000015       0.01000000
  1 43 139       0.00000000       0.01000000
  1 43 140      -0.56999999       0.01000000
  1 43 141      -0.17000002       0.01000000
  1 43 142      -0.72000000       0.01000000
  1 43 143      -0.91000000       0.01000000
  1 43 144      -1.07000000       0.01000000
  1 43 145      -1.07000000       0.01000000
  1 43 146      -0.80000000       0.01000000
  1 43 147      -1.02000000       0.01000000
  1 43 171       0.57000005       0.01000000
  1 43 172       0.25999999       0.01000000
  1 43 173      -0.11000001       0.01000000
  1 43 174       0.14999998       0.01000000
  1 43 175       0.49000001       0.01000000
  1 43 176       0.61000001       0.01000000
  1 43 177       3.78000021       0.01000000
  1 44 135      17.64999962       0.01000000
  1 44 136      10.03999996       0.01000000
  1 44 137       7.68000031       0.01000000
  1 44 138       0.28999996       0.01000000
  1 44 139      -0.30000001       0.01000000
  1 44 140      -0.26999998       0.01000000
  1 44 141      -0.13999999       0.01000000
  1 44 142      -0.66999999       0.01000000
  1 44 143      -0.97000000       0.01000000
  1 44 144      -1.10000000       0.01000000
  1 44 145      -1.10000000       0.01000000
  1 44 146      -0.80000000       0.01000000
  1 44 147      -0.80000000       0.01000000
  1 44 174       0.10000002       0.01000000
  1 44 176       0.59000003       0.01000000
  1 44 177       2.00000000       0.01000000
  1 45 135      17.26000023       0.01000000
  1 45 136      10.00000000       0.01000000
  1 45 137       4.82000017       0.01000000
  1 45 138       0.71000004       0.01000000
  1 45 139       0.36000001       0.01000000
  1 45 140      -0.13000000       0.01000000
  1 45 141      -0.56999999       0.01000000
  1 45 142      -0.59999999       0.01000000
  1 45 143      -0.50000000       0.01000000
  1 45 144      -0.90000000       0.01000000
  1 45 145      -1.18000001       0.01000000
  1 45 146      -1.02000000       0.01000000
  1 45 150      -0.69000000       0.01000000
  1 45 151      -0.69000000       0.01000000
  1 45 176       2.76999998       0.01000000
  1 45 177       2.27999997       0.01000000
  1 46 134      21.36000061       0.01000000
  1 46 135      13.18000031       0.01000000
  1 46 136      10.50000000       0.01000000
  1 46 137       6.46000004       0.01000000
  1 46 138       2.93000007       0.01000000
  1 46 139       1.35999990       0.01000000
  1 46 140       0.96000004       0.01000000
  1 46 141       0.78999996       0.01000000
  1 46 142       3.32000017       0.01000000
  1 46 143       1.69000006       0.01000000
  1 46 144      -0.24000001       0.01000000
  1 46 145       1.25999999       0.01000000
  1 46 146      -0.77000000       0.01000000
  1 46 147      -0.23000002       0.01000000
  1 46 148      -0.49000001       0.01000000
  1 46 149      -0.84999999       0.01000000
  1 46 150      -0.89000000       0.01000000
  1 46 151      -0.89000000       0.01000000
  1 46 169       1.32999992       0.01000000
  1 46 175      -0.44000000       0.01000000
  1 46 176       1.08999991       0.01000000
  1 46 177       1.81999993       0.01000000
  1 47 131      29.26000023       0.01000000
  1 47 132      24.39999962       0.01000000
  1 47 133      19.47999954       0.01000000
  1 47 134      18.78000069       0.01000000
  1 47 135      12.46000004       0.01000000
  1 47 136       8.72000027       0.01000000
  1 47 137       6.88000011       0.01000000
  1 47 138       4.23000002       0.01000000
  1 47 139       4.28000021       0.01000000
  1 47 140       2.70000005       0.01000000
  1 47 141       2.07999992       0.01000000
  1 47 142       1.45000005       0.01000000
  1 47 143      -0.12000000       0.01000000
  1 47 144       0.60000002       0.01000000
  1 47 145      -0.20999998       0.01000000
  1 47 146       0.19000006       0.01000000
  1 47 147       0.13999999       0.01000000
  1 47 148      -0.38000000       0.01000000
  1 47 149      -0.45999998       0.01000000
  1 47 150      -0.49000001       0.01000000
  1 47 151      -0.53000000       0.01000000
  1 47 169       0.41999996       0.01000000
  1 47 174      -0.27999997       0.01000000
  1 47 175       1.51999998       0.01000000
  1 47 176       1.88000011       0.01000000
  1 47 177       1.73000002       0.01000000
  1 48 131      29.70000076       0.01000000
  1 48 132      26.28000069       0.01000000
  1 48 133      21.71999931       0.01000000
  1 48 134      17.87999916       0.01000000
  1 48 135      12.81999969       0.01000000
  1 48 136      10.73999977       0.01000000
  1 48 137      10.03999996       0.01000000
  1 48 138       7.27999973       0.01000000
  1 48 139       7.56000042       0.01000000
  1 48 140       2.93000007       0.01000000
  1 48 141       2.82999992       0.01000000
  1 48 142       0.16999996       0.01000000
  1 48 143       0.10000002       0.01000000
  1 48 144      -0.18000001       0.01000000
  1 48 145       0.63999999       0.01000000
  1 48 146       0.16999996       0.01000000
  1 48 147      -0.02999997       0.01000000
  1 48 148      -0.69000000       0.01000000
  1 48 149      -0.89000000       0.01000000
  1 48 150      -0.89000000       0.01000000
  1 48 151      -1.01000000       0.01000000
  1 48 152      -0.32999998       0.01000000
  1 48 174      -0.23000002       0.01000000
  1 48 175       1.70000005       0.01000000
  1 48 176       0.48000002       0.01000000
  1 48 177       1.35999990       0.01000000
  1 49 131      24.22999954       0.01000000
  1 49 132      20.62000084       0.01000000
  1 49 133      18.79999924       0.01000000
  1 49 134      15.45999908       0.01000000
  1 49 135      13.42000008       0.01000000
  1 49 136      11.69999981       0.01000000
  1 49 137       8.97999954       0.01000000
  1 49 138       6.84000015       0.01000000
  1 49 139       5.78000021       0.01000000
  1 49 140       4.03000021       0.01000000
  1 49 141       2.81999993       0.01000000
  1 49 142       1.50000000       0.01000000
  1 49 143       1.25000000       0.01000000
  1 49 144       0.13000000       0.01000000
  1 49 145       1.51999998       0.01000000
  1 49 146       0.75000000       0.01000000
  1 49 147       1.08999991       0.01000000
  1 49 148      -0.27999997       0.01000000
  1 49 149      -0.53999999       0.01000000
  1 49 150      -0.19999999       0.01000000
  1 49 151      -0.88000000       0.01000000
  1 49 173       0.26999998       0.01000000
  1 49 174       0.63999999       0.01000000
  1 49 175      -0.05000001       0.01000000
  1 49 176       0.87000000       0.01000000
  1 49 177       1.41000009       0.01000000
  1 50 131      25.57999992       0.01000000
  1 50 132      22.79999924       0.01000000
  1 50 133      19.81999969       0.01000000
  1 50 134      16.37999916       0.01000000
  1 50 135      14.06000042       0.01000000
  1 50 136      11.30000019       0.01000000
  1 50 137       9.00000000       0.01000000
  1 50 138       7.35000038       0.01000000
  1 50 139       6.48000002       0.01000000
  1 50 140       4.17000008       0.01000000
  1 50 141       3.15000010       0.01000000
  1 50 142       3.07000017       0.01000000
  1 50 143       3.17000008       0.01000000
  1 50 144       1.67000008       0.01000000
  1 50 145       1.25000000       0.01000000
  1 50 146       1.32999992       0.01000000
  1 50 147       0.57000005       0.01000000
  1 50 148       0.54999995       0.01000000
  1 50 149       0.01999998       0.01000000
  1 50 150      -0.20999998       0.01000000
  1 50 151      -0.53999999       0.01000000
  1 50 152      -0.53999999       0.01000000
  1 50 172       0.03999996       0.01000000
  1 50 174       0.41999996       0.01000000
  1 50 175       0.40999997       0.01000000
  1 50 176       0.98000002       0.01000000
  1 50 177       1.46000004       0.01000000
  1 51 132      21.42000008       0.01000000
  1 51 133      18.93000031       0.01000000
  1 51 134      15.78000069       0.01000000
  1 51 135      13.22000027       0.01000000
  1 51 136      11.65999985       0.01000000
  1 51 137       9.00000000       0.01000000
  1 51 138       7.63000011       0.01000000
  1 51 139       7.01000023       0.01000000
  1 51 140       5.67000008       0.01000000
  1 51 141       5.13000011       0.01000000
  1 51 142       4.21000004       0.01000000
  1 51 143       2.32999992       0.01000000
  1 51 144       3.07000017       0.01000000
  1 51 145       2.29999995       0.01000000
  1 51 146       1.58999991       0.01000000
  1 51 147       1.64000010       0.01000000
  1 51 148       0.21000004       0.01000000
  1 51 149      -0.53999999       0.01000000
  1 51 150      -0.53999999       0.01000000
  1 51 151      -0.53999999       0.01000000
  1 51 152      -0.53999999       0.01000000
  1 51 172       0.58000004       0.01000000
  1 51 173      -0.93000000       0.01000000
  1 51 174       0.38999999       0.01000000
  1 51 175      -0.13000000       0.01000000
  1 51 176       1.29999995       0.01000000
  1 52 132      20.45999908       0.01000000
  1 52 133      19.07999992       0.01000000
  1 52 134      15.55999947       0.01000000
  1 52 135      13.71000004       0.01000000
  1 52 136      11.19999981       0.01000000
  1 52 137       8.97000027       0.01000000
  1 52 138       7.89000034       0.01000000
  1 52 139       7.02000046       0.01000000
  1 52 140       7.81000042       0.01000000
  1 52 141       5.19000006       0.01000000
  1 52 142       4.36000013       0.01000000
  1 52 143       1.73000002       0.01000000
  1 52 144       3.28000021       0.01000000
  1 52 145       2.41000009       0.01000000
  1 52 146       1.76999998       0.01000000
  1 52 147       1.95000005       0.01000000
  1 52 148      -0.02999997       0.01000000
  1 52 149      -0.27999997       0.01000000
  1 52 150      -0.53999999       0.01000000
  1 52 151      -0.53999999       0.01000000
  1 52 152       0.65999997       0.01000000
  1 52 171       0.88999999       0.01000000
  1 52 173       0.73000002       0.01000000
  1 52 174       0.79999995       0.01000000
  1 52 175       0.20000005       0.01000000
  1 52 176       1.16000009       0.01000000
  1 53 117      59.02000046       0.01000000
  1 53 118      56.88000107       0.01000000
  1 53 119      53.90000153       0.01000000
  1 53 120      51.06999969       0.01000000
  1 53 121      48.79999924       0.01000000
  1 53 122      45.93999863       0.01000000
  1 53 130      25.13999939       0.01000000
  1 53 131      22.78000069       0.01000000
  1 53 132      21.07999992       0.01000000
  1 53 133      17.29999924       0.01000000
  1 53 134      15.87000084       0.01000000
  1 53 135      13.47999954       0.01000000
  1 53 136      11.14000034       0.01000000
  1 53 137      10.30000019       0.01000000
  1 53 138       8.10000038       0.01000000
  1 53 139       7.09000015       0.01000000
  1 53 140       7.17000008       0.01000000
  1 53 141       6.63000011       0.01000000
  1 53 142       5.28000021       0.01000000
  1 53 143       2.71000004       0.01000000
  1 53 144       3.55000019       0.01000000
  1 53 145       3.32000017       0.01000000
  1 53 146       2.72000003       0.01000000
  1 53 147       2.09999990       0.01000000
  1 53 148       1.09999990       0.01000000
  1 53 149       0.09000003       0.01000000
  1 53 150      -0.24000001       0.01000000
  1 53 151      -0.39999998       0.01000000
  1 53 152      -0.50000000       0.01000000
  1 53 153      -0.25000000       0.01000000
  1 53 171       2.07999992       0.01000000
  1 53 172      -0.93000000       0.01000000
  1 53 173       0.34000003       0.01000000
  1 53 174       0.77999997       0.01000000
  1 53 175       0.19000006       0.01000000
  1 53 176       0.41999996       0.01000000
  1 54 109      78.66000366       0.01000000
  1 54 110      71.04000092       0.01000000
  1 54 111      64.40000153       0.01000000
  1 54 112      57.95999908       0.01000000
  1 54 113      57.54000092       0.01000000
  1 54 114      57.08000183       0.01000000
  1 54 115      55.22999954       0.01000000
  1 54 116      57.79999924       0.01000000
  1 54 117      56.16999817       0.01000000
  1 54 118      54.91999817       0.01000000
  1 54 119      52.81999969       0.01000000
  1 54 120      49.70000076       0.01000000
  1 54 121      47.68000031       0.01000000
  1 54 122      45.25999832       0.01000000
  1 54 123      42.72000122       0.01000000
  1 54 124      39.93999863       0.01000000
  1 54 125      36.81000137       0.01000000
  1 54 126      34.13999939       0.01000000
  1 54 127      31.22000122       0.01000000
  1 54 128      28.75000000       0.01000000
  1 54 129      24.79000092       0.01000000
  1 54 130      23.73999977       0.01000000
  1 54 131      22.37999916       0.01000000
  1 54 132      19.70000076       0.01000000
  1 54 133      17.60000038       0.01000000
  1 54 134      14.93999958       0.01000000
  1 54 135      12.97999954       0.01000000
  1 54 136      10.84000015       0.01000000
  1 54 137      10.23999977       0.01000000
  1 54 138       8.52999973       0.01000000
  1 54 139       7.72000027       0.01000000
  1 54 140       6.86000013       0.01000000
  1 54 141       5.34000015       0.01000000
  1 54 142       5.57000017       0.01000000
  1 54 143       5.67000008       0.01000000
  1 54 144       4.13000011       0.01000000
  1 54 145       3.11000013       0.01000000
  1 54 146       4.92000008       0.01000000
  1 54 147       1.85999990       0.01000000
  1 54 148       0.84000003       0.01000000
  1 54 149       0.50000000       0.01000000
  1 54 150       0.07000005       0.01000000
  1 54 151      -0.25999999       0.01000000
  1 54 152       0.08000004       0.01000000
  1 54 153      -0.43000001       0.01000000
  1 54 173      -0.93000000       0.01000000
  1 54 174       0.37000000       0.01000000
  1 54 175       0.63000000       0.01000000
  1 54 176       0.90999997       0.01000000
  1 55 108      80.22000122       0.01000000
  1 55 109      71.69999695       0.01000000
  1 55 110      66.18000031       0.01000000
  1 55 111      62.36000061       0.01000000
  1 55 112      55.91999817       0.01000000
  1 55 113      54.18000031       0.01000000
  1 55 114      56.00000000       0.01000000
  1 55 115      55.36000061       0.01000000
  1 55 116      54.52000046       0.01000000
  1 55 117      53.11999893       0.01000000
  1 55 118      52.29999924       0.01000000
  1 55 119      50.97999954       0.01000000
  1 55 120      48.56000137       0.01000000
  1 55 121      46.43999863       0.01000000
  1 55 122      44.02000046       0.01000000
  1 55 123      41.79999924       0.01000000
  1 55 124      39.27999878       0.01000000
  1 55 125      35.77999878       0.01000000
  1 55 126      33.27999878       0.01000000
  1 55 127      30.29999924       0.01000000
  1 55 128      27.52000046       0.01000000
  1 55 129      24.63999939       0.01000000
  1 55 130      22.57999992       0.01000000
  1 55 131      20.81999969       0.01000000
  1 55 132      19.79999924       0.01000000
  1 55 133      17.21999931       0.01000000
  1 55 134      14.61999989       0.01000000
  1 55 135      12.35999966       0.01000000
  1 55 136      10.69999981       0.01000000
  1 55 137      10.23999977       0.01000000
  1 55 138       8.56000042       0.01000000
  1 55 139       7.81000042       0.01000000
  1 55 140       7.10999966       0.01000000
  1 55 141       7.43000031       0.01000000
  1 55 142       6.42000008       0.01000000
  1 55 143       5.51000023       0.01000000
  1 55 144       6.26000023       0.01000000
  1 55 145       4.01000023       0.01000000
  1 55 146       2.88000011       0.01000000
  1 55 147       1.98000002       0.01000000
  1 55 148       1.19000006       0.01000000
  1 55 149       0.61000001       0.01000000
  1 55 150       0.20000005       0.01000000
  1 55 151      -0.39999998       0.01000000
  1 55 152       0.08000004       0.01000000