BEGIN griddata
  strt
    CONSTANT    -149.00000000
END griddata

