BEGIN griddata
  strt
    INTERNAL  FACTOR  1.0
        -9.89999962      -9.89999962      -9.89999962      -9.89999962      -9.89999962      -9.89999962      -9.89999962      -9.89999962      -9.89999962      -9.89999962      -9.89999962      -9.89999962      -9.89999962      -9.89999962      -9.89999962      -9.89999962      -9.89999962      -9.89999962      -9.89999962      -9.89999962
        -9.89999962      -9.89999962      -9.89999962      -9.89999962      -9.89999962      -9.89999962      -9.89999962      -9.89999962      -9.89999962      -9.89999962      -9.89999962      -9.89999962      -9.89999962      -9.89999962      -9.89999962      -9.89999962      -9.89999962      -9.89999962      -9.89999962      -9.89999962
        -9.89999962      -9.89999962      -9.89999962      -9.89999962      -9.89999962      -9.89999962      -9.89999962      -9.89999962      -9.89999962      -9.89999962      -9.89999962      -9.89999962      -9.89999962      -9.89999962      -9.89999962      -9.89999962      -9.89999962      -9.89999962      -9.89999962      -9.89999962
        -9.89999962      -9.89999962      -9.89999962      -9.89999962      -9.89999962      -9.89999962      -9.89999962      -9.89999962      -9.89999962      -9.89999962      -9.89999962      -9.89999962      -9.89999962      -9.89999962      -9.89999962      -9.89999962      -9.89999962      -9.89999962      -9.89999962      -9.89999962
        -9.89999962      -9.89999962      -9.89999962      -9.89999962      -9.89999962      -9.89999962      -9.89999962      -9.89999962      -9.89999962      -9.89999962      -9.89999962      -9.89999962      -9.89999962      -9.89999962      -9.89999962      -9.89999962      -9.89999962      -9.89999962      -9.89999962      -9.89999962
        -9.89999962      -9.89999962      -9.89999962      -9.89999962      -9.89999962      -9.89999962      -9.89999962      -9.89999962      -9.89999962      -9.89999962      -9.89999962      -9.89999962      -9.89999962      -9.89999962      -9.89999962      -9.89999962      -9.89999962      -9.89999962      -9.89999962      -9.89999962
        -9.89999962      -9.89999962      -9.89999962      -9.89999962      -9.89999962      -9.89999962      -9.89999962      -9.89999962      -9.89999962      -9.89999962      -9.89999962      -9.89999962      -9.89999962      -9.89999962      -9.89999962      -9.89999962      -9.89999962      -9.89999962      -9.89999962      -9.89999962
        -9.89999962      -9.89999962      -9.89999962      -9.89999962      -9.89999962      -9.89999962      -9.89999962      -9.89999962      -9.89999962      -9.89999962      -9.89999962      -9.89999962      -9.89999962      -9.89999962      -9.89999962      -9.89999962      -9.89999962      -9.89999962      -9.89999962      -9.89999962
        -9.89999962      -9.89999962      -9.89999962      -9.89999962      -9.89999962      -9.89999962      -9.89999962      -9.89999962      -9.89999962      -9.89999962      -9.89999962      -9.89999962      -9.89999962      -9.89999962      -9.89999962      -9.89999962      -9.89999962      -9.89999962      -9.89999962      -9.89999962
        -9.89999962      -9.89999962      -9.89999962      -9.89999962      -9.89999962      -9.89999962      -9.89999962      -9.89999962      -9.89999962      -9.89999962      -9.89999962      -9.89999962      -9.89999962      -9.89999962      -9.89999962      -9.89999962      -9.89999962      -9.89999962      -9.89999962      -9.89999962
        -9.89999962      -9.89999962      -9.89999962      -9.89999962      -9.89999962      -9.89999962      -9.89999962      -9.89999962      -9.89999962      -9.89999962      -9.89999962      -9.89999962      -9.89999962      -9.89999962      -9.89999962      -9.89999962      -9.89999962      -9.89999962      -9.89999962      -9.89999962
        -9.89999962      -9.89999962      -9.89999962      -9.89999962      -9.89999962      -9.89999962      -9.89999962      -9.89999962      -9.89999962      -9.89999962      -9.89999962      -9.89999962      -9.89999962      -9.89999962      -9.89999962      -9.89999962      -9.89999962      -9.89999962      -9.89999962      -9.89999962
        -9.89999962      -9.89999962      -9.89999962      -9.89999962      -9.89999962      -4.17000008      -5.38999987      -6.32000017      -7.75999975      -8.45999908      -8.80999947     -10.39999962     -10.39999962     -10.39999962     -10.39999962     -10.39999962      -9.48999977      -9.77999973      -8.78999996      -8.73999977
        -8.73999977      -8.19999981      -9.39999962      -9.67000008      -8.64999962      -9.89999962      -9.89999962      -9.89999962      -9.89999962      -9.89999962      -9.89999962      -9.89999962      -9.89999962      -9.89999962      -9.89999962      -9.89999962      -9.89999962      -9.89999962      -9.89999962      -9.89999962
        -9.89999962      -9.89999962      -9.89999962    -174.09309387    -175.70028687    -177.92250061    -179.49809265    -180.91139221    -182.03009033    -182.76770020    -184.25819397    -185.74099731    -187.21369934    -189.44599915    -191.16539001    -192.87739563    -195.47859192    -197.48959351    -199.49519348    -201.73278809
        -9.89999962      -9.89999962      -9.89999962      -9.89999962      -9.89999962      -9.89999962      -9.89999962      -9.89999962      -9.89999962      -9.89999962      -9.89999962      -9.89999962      -9.89999962      -9.89999962      -9.89999962      -9.89999962      -9.89999962      -9.89999962      -9.89999962      -9.89999962
        -9.89999962      -9.89999962      -9.89999962      -9.89999962      -9.89999962      -9.89999962      -9.89999962      -9.89999962      -9.89999962      -9.89999962      -9.89999962      -9.89999962      -9.89999962      -9.89999962      -9.89999962      -9.89999962      -9.89999962      -9.89999962      -9.89999962      -9.89999962
        -9.89999962      -9.89999962      -9.89999962      -9.89999962      -9.89999962      -9.89999962      -9.89999962      -9.89999962      -9.89999962      -9.89999962      -9.89999962      -9.89999962      -9.89999962      -9.89999962      -9.89999962      -9.89999962      -9.89999962      -9.89999962      -9.89999962      -9.89999962
        -9.89999962      -9.89999962      -9.89999962      -9.89999962      -9.89999962      -9.89999962      -9.89999962      -9.89999962      -9.89999962      -9.89999962      -9.89999962      -9.89999962      -9.89999962      -9.89999962      -9.89999962      -9.89999962      -9.89999962      -9.89999962      -9.89999962      -9.89999962
        -9.89999962      -9.89999962      -9.89999962      -9.89999962      -9.89999962      -9.89999962      -9.89999962      -9.89999962      -9.89999962      -9.89999962      -9.89999962      -9.89999962      -9.89999962      -9.89999962      -9.89999962      -9.89999962      -9.89999962      -9.89999962      -9.89999962      -9.89999962
        -9.89999962      -9.89999962      -9.89999962      -9.89999962      -9.89999962      -9.89999962      -9.89999962      -9.89999962      -9.89999962      -9.89999962      -9.89999962      -9.89999962      -9.89999962      -9.89999962      -9.89999962      -9.89999962      -9.89999962      -9.89999962      -9.89999962      -9.89999962
        -9.89999962      -9.89999962      -9.89999962      -9.89999962      -9.89999962      -9.89999962      -9.89999962      -9.89999962      -9.89999962      -9.89999962      -9.89999962      -9.89999962      -9.89999962      -9.89999962      -9.89999962      -9.89999962      -9.89999962      -9.89999962      -9.89999962      -9.89999962
        -9.89999962      -9.89999962      -9.89999962      -9.89999962      -9.89999962      -9.89999962      -9.89999962      -9.89999962      -9.89999962      -9.89999962      -9.89999962      -9.89999962      -9.89999962      -9.89999962      -9.89999962      -9.89999962      -9.89999962      -9.89999962      -9.89999962      -9.89999962
        -9.89999962      -9.89999962      -9.89999962      -9.89999962      -9.89999962      -9.89999962      -9.89999962      -9.89999962      -9.89999962      -9.89999962      -9.89999962      -9.89999962      -9.89999962      -9.89999962      -9.89999962      -9.89999962      -9.89999962      -9.89999962      -9.89999962      -9.89999962
        -9.89999962      -9.89999962      -9.89999962      -9.89999962      -9.89999962      -9.89999962      -9.89999962      -9.89999962      -9.89999962      -9.89999962      -9.89999962      -9.89999962      -9.89999962      -9.89999962      -9.89999962      -9.89999962      -9.89999962      -9.89999962      -9.89999962      -9.89999962
        -9.89999962      -9.89999962      -9.89999962      -9.89999962      -9.89999962      -9.89999962      -9.89999962      -9.89999962      -9.89999962      -9.89999962      -9.89999962      -9.89999962      -9.89999962      -9.89999962      -9.89999962      -9.89999962      -9.89999962      -9.89999962      -9.89999962      -9.89999962
        -9.89999962      -9.89999962      -9.89999962      -9.89999962      -9.89999962      -9.89999962      -9.89999962      -9.89999962      -9.89999962      -9.89999962      -9.89999962      -9.89999962      -9.89999962      -9.89999962      -9.89999962      -9.89999962      -9.89999962      -9.89999962      -9.89999962      -9.89999962
        -9.89999962      -9.89999962      -9.89999962      -9.89999962      -9.89999962      -3.71000004      -4.71000004      -5.96000004      -7.29000044      -8.02999973      -8.52999973      -9.59999943     -10.39999962     -10.39999962     -10.39999962     -10.39999962      -9.58999920     -10.39999962      -9.89999962      -8.77999973
        -8.75999928      -9.51999950      -9.39999962      -9.61999989      -8.57999992      -9.89999962      -9.89999962      -9.89999962      -9.89999962      -9.89999962      -9.89999962      -9.89999962      -9.89999962      -9.89999962      -9.89999962      -9.89999962      -9.89999962      -9.89999962      -9.89999962      -9.89999962
        -9.89999962      -9.89999962      -9.89999962    -174.47329712    -176.04159546    -178.26889038    -179.87078857    -181.30509949    -182.44279480    -183.13128662    -184.59579468    -186.05999756    -187.53839111    -189.72819519    -191.43289185    -193.15519714    -195.72569275    -197.73388672    -199.76139832    -201.98539734
        -9.89999962      -9.89999962      -9.89999962      -9.89999962      -9.89999962      -9.89999962      -9.89999962      -9.89999962      -9.89999962      -9.89999962      -9.89999962      -9.89999962      -9.89999962      -9.89999962      -9.89999962      -9.89999962      -9.89999962      -9.89999962      -9.89999962      -9.89999962
        -9.89999962      -9.89999962      -9.89999962      -9.89999962      -9.89999962      -9.89999962      -9.89999962      -9.89999962      -9.89999962      -9.89999962      -9.89999962      -9.89999962      -9.89999962      -9.89999962      -9.89999962      -9.89999962      -9.89999962      -9.89999962      -9.89999962      -9.89999962
        -9.89999962      -9.89999962      -9.89999962      -9.89999962      -9.89999962      -9.89999962      -9.89999962      -9.89999962      -9.89999962      -9.89999962      -9.89999962      -9.89999962      -9.89999962      -9.89999962      -9.89999962      -9.89999962      -9.89999962      -9.89999962      -9.89999962      -9.89999962
        -9.89999962      -9.89999962      -9.89999962      -9.89999962      -9.89999962      -9.89999962      -9.89999962      -9.89999962      -9.89999962      -9.89999962      -9.89999962      -9.89999962      -9.89999962      -9.89999962      -9.89999962      -9.89999962      -9.89999962      -9.89999962      -9.89999962      -9.89999962
        -9.89999962      -9.89999962      -9.89999962      -9.89999962      -9.89999962      -9.89999962      -9.89999962      -9.89999962      -9.89999962      -9.89999962      -9.89999962      -9.89999962      -9.89999962      -9.89999962      -9.89999962      -9.89999962      -9.89999962      -9.89999962      -9.89999962      -9.89999962
        -9.89999962      -9.89999962      -9.89999962      -9.89999962      -9.89999962      -9.89999962      -9.89999962      -9.89999962      -9.89999962      -9.89999962      -9.89999962      -9.89999962      -9.89999962      -9.89999962      -9.89999962      -9.89999962      -9.89999962      -9.89999962      -9.89999962      -9.89999962
        -9.89999962      -9.89999962      -9.89999962      -9.89999962      -9.89999962      -9.89999962      -9.89999962      -9.89999962      -9.89999962      -9.89999962      -9.89999962      -9.89999962      -9.89999962      -9.89999962      -9.89999962      -9.89999962      -9.89999962      -9.89999962      -9.89999962      -9.89999962
        -9.89999962      -9.89999962      -9.89999962      -9.89999962      -9.89999962      -9.89999962      -9.89999962      -9.89999962      -9.89999962      -9.89999962      -9.89999962      -9.89999962      -9.89999962      -9.89999962      -9.89999962      -9.89999962      -9.89999962      -9.89999962      -9.89999962      -9.89999962
        -9.89999962      -9.89999962      -9.89999962      -9.89999962      -9.89999962      -9.89999962      -9.89999962      -9.89999962      -9.89999962      -9.89999962      -9.89999962      -9.89999962      -9.89999962      -9.89999962      -9.89999962      -9.89999962      -9.89999962      -9.89999962      -9.89999962      -9.89999962
        -9.89999962      -9.89999962      -9.89999962      -9.89999962      -9.89999962      -9.89999962      -9.89999962      -9.89999962      -9.89999962      -9.89999962      -9.89999962      -9.89999962      -9.89999962      -9.89999962      -9.89999962      -9.89999962      -9.89999962      -9.89999962      -9.89999962      -9.89999962
        -9.89999962      -9.89999962      -9.89999962      -9.89999962      -9.89999962      -9.89999962      -9.89999962      -9.89999962      -9.89999962      -9.89999962      -9.89999962      -9.89999962      -9.89999962      -9.89999962      -9.89999962      -9.89999962      -9.89999962      -9.89999962      -9.89999962      -9.89999962
        -9.89999962      -9.89999962      -9.89999962      -9.89999962      -9.89999962      -9.89999962      -9.89999962      -9.89999962      -9.89999962      -9.89999962      -9.89999962      -9.89999962      -9.89999962      -9.89999962      -9.89999962      -9.89999962      -9.89999962      -9.89999962      -9.89999962      -9.89999962
        -9.89999962      -9.89999962      -9.89999962      -9.89999962      -9.89999962      -2.94000006      -4.21000004      -6.17000008      -7.30999994      -8.07999992      -8.57999992      -9.59999943     -10.39999962     -10.39999962     -10.39999962      -9.51999950     -10.39999962     -10.39999962     -10.39999962      -9.01999950
        -8.65999985      -9.62999916      -9.39999962      -9.58999920      -9.89999962      -9.89999962      -9.89999962      -9.89999962      -9.89999962      -9.89999962      -9.89999962      -9.89999962      -9.89999962      -9.89999962      -9.89999962      -9.89999962      -9.89999962      -9.89999962      -9.89999962      -9.89999962
        -9.89999962      -9.89999962      -9.89999962    -175.05889893    -176.59849548    -178.73799133    -180.38330078    -181.85758972    -183.03709412    -183.61659241    -185.05729675    -186.49778748    -187.94400024    -190.11299133    -191.79888916    -193.49099731    -196.06059265    -198.06610107    -200.07739258    -202.32339478
        -9.89999962      -9.89999962      -9.89999962      -9.89999962      -9.89999962      -9.89999962      -9.89999962      -9.89999962      -9.89999962      -9.89999962      -9.89999962      -9.89999962      -9.89999962      -9.89999962      -9.89999962      -9.89999962      -9.89999962      -9.89999962      -9.89999962      -9.89999962
        -9.89999962      -9.89999962      -9.89999962      -9.89999962      -9.89999962      -9.89999962      -9.89999962      -9.89999962      -9.89999962      -9.89999962      -9.89999962      -9.89999962      -9.89999962      -9.89999962      -9.89999962      -9.89999962      -9.89999962      -9.89999962      -9.89999962      -9.89999962
        -9.89999962      -9.89999962      -9.89999962      -9.89999962      -9.89999962      -9.89999962      -9.89999962      -9.89999962      -9.89999962      -9.89999962      -9.89999962      -9.89999962      -9.89999962      -9.89999962      -9.89999962      -9.89999962      -9.89999962      -9.89999962      -9.89999962      -9.89999962
        -9.89999962      -9.89999962      -9.89999962      -9.89999962      -9.89999962      -9.89999962      -9.89999962      -9.89999962      -9.89999962      -9.89999962      -9.89999962      -9.89999962      -9.89999962      -9.89999962      -9.89999962      -9.89999962      -9.89999962      -9.89999962      -9.89999962      -9.89999962
        -9.89999962      -9.89999962      -9.89999962      -9.89999962      -9.89999962      -9.89999962      -9.89999962      -9.89999962      -9.89999962      -9.89999962      -9.89999962      -9.89999962      -9.89999962      -9.89999962      -9.89999962      -9.89999962      -9.89999962      -9.89999962      -9.89999962      -9.89999962
        -9.89999962      -9.89999962      -9.89999962      -9.89999962      -9.89999962      -9.89999962      -9.89999962      -9.89999962      -9.89999962      -9.89999962      -9.89999962      -9.89999962      -9.89999962      -9.89999962      -9.89999962      -9.89999962      -9.89999962      -9.89999962      -9.89999962      -9.89999962
        -9.89999962      -9.89999962      -9.89999962      -9.89999962      -9.89999962      -9.89999962      -9.89999962      -9.89999962      -9.89999962      -9.89999962      -9.89999962      -9.89999962      -9.89999962      -9.89999962      -9.89999962      -9.89999962      -9.89999962      -9.89999962      -9.89999962      -9.89999962
        -9.89999962      -9.89999962      -9.89999962      -9.89999962      -9.89999962      -9.89999962      -9.89999962      -9.89999962      -9.89999962      -9.89999962      -9.89999962      -9.89999962      -9.89999962      -9.89999962      -9.89999962      -9.89999962      -9.89999962      -9.89999962      -9.89999962      -9.89999962
        -9.89999962      -9.89999962      -9.89999962      -9.89999962      -9.89999962      -9.89999962      -9.89999962      -9.89999962      -9.89999962      -9.89999962      -9.89999962      -9.89999962      -9.89999962      -9.89999962      -9.89999962      -9.89999962      -9.89999962      -9.89999962      -9.89999962      -9.89999962
        -9.89999962      -9.89999962      -9.89999962      -9.89999962      -9.89999962      -9.89999962      -9.89999962      -9.89999962      -9.89999962      -9.89999962      -9.89999962      -9.89999962      -9.89999962      -9.89999962      -9.89999962      -9.89999962      -9.89999962      -9.89999962      -9.89999962      -9.89999962
        -9.89999962      -9.89999962      -9.89999962      -9.89999962      -9.89999962      -9.89999962      -9.89999962      -9.89999962      -9.89999962      -9.89999962      -9.89999962      -9.89999962      -9.89999962      -9.89999962      -9.89999962      -9.89999962      -9.89999962      -9.89999962      -9.89999962      -9.89999962
        -9.89999962      -9.89999962      -9.89999962      -9.89999962      -9.89999962      -9.89999962      -9.89999962      -9.89999962      -9.89999962      -9.89999962      -9.89999962      -9.89999962      -9.89999962      -9.89999962      -9.89999962      -9.89999962      -9.89999962      -9.89999962      -9.89999962      -9.89999962
        -9.89999962      -9.89999962      -9.89999962      -9.89999962      -9.89999962      -3.92000008      -4.80999994      -6.41000032      -7.40000010      -8.00999928      -7.95000029      -8.48999977      -9.67000008      -9.79999924     -10.39999962     -10.39999962     -10.39999962     -10.39999962     -10.39999962      -9.02999973
        -8.17999935      -9.61999989      -9.64999962      -9.58999920      -9.89999962      -9.89999962      -9.89999962      -9.89999962      -9.89999962      -9.89999962      -9.89999962      -9.89999962      -9.89999962      -9.89999962      -9.89999962      -9.89999962      -9.89999962      -9.89999962      -9.89999962      -9.89999962
        -9.89999962      -9.89999962    -174.18069458    -175.73199463    -177.26379395    -179.30009460    -180.90280151    -182.43919373    -183.67559814    -184.20959473    -185.62719727    -187.04489136    -188.46339417    -190.60359192    -192.26779175    -193.93449402    -196.49009705    -198.48908997    -200.49209595    -202.74569702
        -9.89999962      -9.89999962      -9.89999962      -9.89999962      -9.89999962      -9.89999962      -9.89999962      -9.89999962      -9.89999962      -9.89999962      -9.89999962      -9.89999962      -9.89999962      -9.89999962      -9.89999962      -9.89999962      -9.89999962      -9.89999962      -9.89999962      -9.89999962
        -9.89999962      -9.89999962      -9.89999962      -9.89999962      -9.89999962      -9.89999962      -9.89999962      -9.89999962      -9.89999962      -9.89999962      -9.89999962      -9.89999962      -9.89999962      -9.89999962      -9.89999962      -9.89999962      -9.89999962      -9.89999962      -9.89999962      -9.89999962
        -9.89999962      -9.89999962      -9.89999962      -9.89999962      -9.89999962      -9.89999962      -9.89999962      -9.89999962      -9.89999962      -9.89999962      -9.89999962      -9.89999962      -9.89999962      -9.89999962      -9.89999962      -9.89999962      -9.89999962      -9.89999962      -9.89999962      -9.89999962
        -9.89999962      -9.89999962      -9.89999962      -9.89999962      -9.89999962      -9.89999962      -9.89999962      -9.89999962      -9.89999962      -9.89999962      -9.89999962      -9.89999962      -9.89999962      -9.89999962      -9.89999962      -9.89999962      -9.89999962      -9.89999962      -9.89999962      -9.89999962
        -9.89999962      -9.89999962      -9.89999962      -9.89999962      -9.89999962      -9.89999962      -9.89999962      -9.89999962      -9.89999962      -9.89999962      -9.89999962      -9.89999962      -9.89999962      -9.89999962      -9.89999962      -9.89999962      -9.89999962      -9.89999962      -9.89999962      -9.89999962
        -9.89999962      -9.89999962      -9.89999962      -9.89999962      -9.89999962      -9.89999962      -9.89999962      -9.89999962      -9.89999962      -9.89999962      -9.89999962      -9.89999962      -9.89999962      -9.89999962      -9.89999962      -9.89999962      -9.89999962      -9.89999962      -9.89999962      -9.89999962
        -9.89999962      -9.89999962      -9.89999962      -9.89999962      -9.89999962      -9.89999962      -9.89999962      -9.89999962      -9.89999962      -9.89999962      -9.89999962      -9.89999962      -9.89999962      -9.89999962      -9.89999962      -9.89999962      -9.89999962      -9.89999962      -9.89999962      -9.89999962
        -9.89999962      -9.89999962      -9.89999962      -9.89999962      -9.89999962      -9.89999962      -9.89999962      -9.89999962      -9.89999962      -9.89999962      -9.89999962      -9.89999962      -9.89999962      -9.89999962      -9.89999962      -9.89999962      -9.89999962      -9.89999962      -9.89999962      -9.89999962
        -9.89999962      -9.89999962      -9.89999962      -9.89999962      -9.89999962      -9.89999962      -9.89999962      -9.89999962      -9.89999962      -9.89999962      -9.89999962      -9.89999962      -9.89999962      -9.89999962      -9.89999962      -9.89999962      -9.89999962      -9.89999962      -9.89999962      -9.89999962
        -9.89999962      -9.89999962      -9.89999962      -9.89999962      -9.89999962      -9.89999962      -9.89999962      -9.89999962      -9.89999962      -9.89999962      -9.89999962      -9.89999962      -9.89999962      -9.89999962      -9.89999962      -9.89999962      -9.89999962      -9.89999962      -9.89999962      -9.89999962
        -9.89999962      -9.89999962      -9.89999962      -9.89999962      -9.89999962      -9.89999962      -9.89999962      -9.89999962      -9.89999962      -9.89999962      -9.89999962      -9.89999962      -9.89999962      -9.89999962      -9.89999962      -9.89999962      -9.89999962      -9.89999962      -9.89999962      -9.89999962
        -9.89999962      -9.89999962      -9.89999962      -9.89999962      -9.89999962      -9.89999962      -9.89999962      -9.89999962      -9.89999962      -9.89999962      -9.89999962      -9.89999962      -9.89999962      -9.89999962      -9.89999962      -9.89999962      -9.89999962      -9.89999962      -9.89999962      -9.89999962
        -9.89999962      -9.89999962      -9.89999962      -9.89999962      -9.89999962      -3.84999990      -5.19000006      -6.40000010      -7.63000011      -8.18999958      -8.94999981      -7.36000013      -8.97999954      -9.50000000      -9.21000004      -9.87999916      -8.73999977      -7.86000013      -8.31999969      -7.83000040
       -10.39999962      -9.79999924      -9.68999958      -9.61999989      -9.89999962      -9.89999962      -9.89999962      -9.89999962      -9.89999962      -9.89999962      -9.89999962      -9.89999962      -9.89999962      -9.89999962      -9.89999962      -9.89999962      -9.89999962      -9.89999962      -9.89999962      -9.89999962
        -9.89999962      -9.89999962    -174.72828674    -176.29229736    -177.82998657    -179.81739807    -181.30969238    -182.88909912    -184.18119812    -184.76579285    -186.16310120    -187.56028748    -188.97149658    -191.06919861    -192.71139526    -194.37269592    -196.89239502    -198.88150024    -200.89219666    -203.12889099
        -9.89999962      -9.89999962      -9.89999962      -9.89999962      -9.89999962      -9.89999962      -9.89999962      -9.89999962      -9.89999962      -9.89999962      -9.89999962      -9.89999962      -9.89999962      -9.89999962      -9.89999962      -9.89999962      -9.89999962      -9.89999962      -9.89999962      -9.89999962
        -9.89999962      -9.89999962      -9.89999962      -9.89999962      -9.89999962      -9.89999962      -9.89999962      -9.89999962      -9.89999962      -9.89999962      -9.89999962      -9.89999962      -9.89999962      -9.89999962      -9.89999962      -9.89999962      -9.89999962      -9.89999962      -9.89999962      -9.89999962
        -9.89999962      -9.89999962      -9.89999962      -9.89999962      -9.89999962      -9.89999962      -9.89999962      -9.89999962      -9.89999962      -9.89999962      -9.89999962      -9.89999962      -9.89999962      -9.89999962      -9.89999962      -9.89999962      -9.89999962      -9.89999962      -9.89999962      -9.89999962
        -9.89999962      -9.89999962      -9.89999962      -9.89999962      -9.89999962      -9.89999962      -9.89999962      -9.89999962      -9.89999962      -9.89999962      -9.89999962      -9.89999962      -9.89999962      -9.89999962      -9.89999962      -9.89999962      -9.89999962      -9.89999962      -9.89999962      -9.89999962
        -9.89999962      -9.89999962      -9.89999962      -9.89999962      -9.89999962      -9.89999962      -9.89999962      -9.89999962      -9.89999962      -9.89999962      -9.89999962      -9.89999962      -9.89999962      -9.89999962      -9.89999962      -9.89999962      -9.89999962      -9.89999962      -9.89999962      -9.89999962
        -9.89999962      -9.89999962      -9.89999962      -9.89999962      -9.89999962      -9.89999962      -9.89999962      -9.89999962      -9.89999962      -9.89999962      -9.89999962      -9.89999962      -9.89999962      -9.89999962      -9.89999962      -9.89999962      -9.89999962      -9.89999962      -9.89999962      -9.89999962
        -9.89999962      -9.89999962      -9.89999962      -9.89999962      -9.89999962      -9.89999962      -9.89999962      -9.89999962      -9.89999962      -9.89999962      -9.89999962      -9.89999962      -9.89999962      -9.89999962      -9.89999962      -9.89999962      -9.89999962      -9.89999962      -9.89999962      -9.89999962
        -9.89999962      -9.89999962      -9.89999962      -9.89999962      -9.89999962      -9.89999962      -9.89999962      -9.89999962      -9.89999962      -9.89999962      -9.89999962      -9.89999962      -9.89999962      -9.89999962      -9.89999962      -9.89999962      -9.89999962      -9.89999962      -9.89999962      -9.89999962
        -9.89999962      -9.89999962      -9.89999962      -9.89999962      -9.89999962      -9.89999962      -9.89999962      -9.89999962      -9.89999962      -9.89999962      -9.89999962      -9.89999962      -9.89999962      -9.89999962      -9.89999962      -9.89999962      -9.89999962      -9.89999962      -9.89999962      -9.89999962
        -9.89999962      -9.89999962      -9.89999962      -9.89999962      -9.89999962      -9.89999962      -9.89999962      -9.89999962      -9.89999962      -9.89999962      -9.89999962      -9.89999962      -9.89999962      -9.89999962      -9.89999962      -9.89999962      -9.89999962      -9.89999962      -9.89999962      -9.89999962
        -9.89999962      -9.89999962      -9.89999962      -9.89999962      -9.89999962      -9.89999962      -9.89999962      -9.89999962      -9.89999962      -9.89999962      -9.89999962      -9.89999962      -9.89999962      -9.89999962      -9.89999962      -9.89999962      -9.89999962      -9.89999962      -9.89999962      -9.89999962
        -9.89999962      -9.89999962      -9.89999962      -9.89999962      -9.89999962      -9.89999962      -9.89999962      -9.89999962      -9.89999962      -9.89999962      -9.89999962      -9.89999962      -9.89999962      -9.89999962      -9.89999962      -9.89999962      -9.89999962      -9.89999962      -9.89999962      -9.89999962