BEGIN options
END options

BEGIN dimensions
  MAXBOUND  106
END dimensions

BEGIN period  1
  1 62 78      -0.00648782
  1 73 79      -0.04646436
  1 83 86      -0.04431761
  1 67 65      -0.00551433
  1 69 64      -0.00419521
  1 50 52      -0.00813356
  1 80 61      -0.00371639
  1 43 70      -0.00910705
  1 43 70      -0.01102549
  1 59 13      -0.01124112
  1 79 66      -0.03346969
  1 78 66      -0.00473110
  1 54 72      -0.02396626
  1 53 73      -0.01406012
  1 49 83      -0.00750888
  1 48 83      -0.00246068
  1 53 87      -0.00616121
  1 49 86      -0.01513508
  1 53 82      -0.01472603
  1 53 84      -0.00749619
  1 60 55      -0.01078767
  1 38 74      -0.00771182
  1 65 74      -0.00495941
  1 50 36      -0.00334855
  1 72 78      -0.01416159
  1 72 75      -0.01440576
  1 72 75      -0.01087646
  1 71 77      -0.00876142
  1 70 71      -0.00896436
  1 35 54      -0.00636733
  1 74 44      -0.00740741
  1 54 18      -0.00991882
  1 56 18      -0.01359082
  1 69 83      -0.01250317
  1 71 83      -0.01511289
  1 28 88  -1.26839168E-04
  1 54 48      -0.02446728
  1 52 29      -0.01113648
  1 50 30      -0.06351788
  1 50 30      -0.02671550
  1 68 72      -0.00670028
  1 69 69      -0.01872780
  1 69 69      -0.01459919
  1 68 68      -0.01820459
  1 66 68      -0.01423770
  1 52 26      -0.00523212
  1 75 71  -5.64434297E-04
  1 51 59      -0.01619736
  1 49 66      -0.00989663
  1 47 64      -0.00919584
  1 54 66      -0.00489916
  1 39 57      -0.00315830
  1 51 46      -0.02978184
  1 48 48      -0.00895167
  1 51 43      -0.00722666
  1 43 67      -0.01864219
  1 63 60      -0.00491819
  1 65 51      -0.00528285
  1 38 62      -0.00726788
  1 38 60      -0.00193113
  1 34 60      -0.01621639
  1 29 66      -0.00228311
  1 56 80      -0.00547945
  1 55 80      -0.00537481
  1 58 73      -0.01092402
  1 23 69  -3.51978691E-04
  1 66 85      -0.01009323
  1 66 81      -0.03848935
  1 47 54      -0.02497146
  1 47 56      -0.00793379
  1 49 60      -0.01805873
  1 47 54      -0.00200406
  1 55 35      -0.09195840
  1 52 34      -0.01979959
  1 52 34      -0.03000698
  1 53 35      -0.00282217
  1 55 35      -0.01492580
  1 55 35      -0.02101408
  1 55 35      -0.04545599
  1 55 38      -0.00375444
  1 33 77      -0.00440132
  1 32 78      -0.01429795
  1 30 80      -0.01399670
  1 31 80      -0.00509576
  1 34 76      -0.02236175
  1 89 47      -0.00947806
  1 32 82      -0.01402841
  1 32 82      -0.00246385
  1 32 80      -0.01660008
  1 34 82      -0.00468037
  1 31 83      -0.01491946
  1 45 84      -0.00316147
  1 44 85      -0.00707763
  1 45 85      -0.00874873
  1 70 43      -0.00191527
  1 71 38      -0.01204021
  1 62 74      -0.00235921
  1 61 39      -0.01718037
  1 64 40      -0.02500951
  1 38 81      -0.00742643
  1 37 86      -0.00437278
  1 57 55      -0.01532851
  1 68 48      -0.00696030
  1 44 80      -0.00655441
  1 63 68      -0.00965880
  1 49 48      -0.00361809
END period  1

