BEGIN griddata
  strt
    INTERNAL  FACTOR  1.0
       -11.40000000     -12.90000000     -14.40000000     -15.90000000     -17.40000000     -18.90000000     -20.40000000     -21.90000000     -23.40000000     -24.90000000     -26.40000000     -27.90000000     -29.40000000     -30.90000000     -32.40000000     -33.90000000     -35.40000000     -36.90000000     -38.40000000     -39.90000000
       -41.40000000     -42.90000000     -44.40000000     -45.90000000     -47.40000000     -48.90000000     -50.40000000     -51.90000000     -53.40000000     -54.90000000     -56.40000000     -57.90000000     -59.40000000     -60.90000000     -62.40000000     -63.90000000     -65.40000000     -66.90000000     -68.40000000     -69.90000000
       -71.40000000     -72.90000000     -74.40000000     -75.90000000     -77.40000000     -78.90000000     -80.40000000     -81.90000000     -83.40000000     -84.90000000     -86.40000000     -87.90000000     -89.40000000     -90.90000000     -92.40000000     -93.90000000     -95.40000000     -96.90000000     -98.40000000     -99.90000000
      -101.40000000    -102.90000000    -104.40000000    -105.90000000    -107.40000000    -108.90000000    -110.40000000    -111.90000000    -113.40000000    -114.90000000    -116.40000000    -117.90000000    -119.40000000    -120.90000000    -122.40000000    -123.90000000    -125.40000000    -126.90000000    -128.40000000    -129.90000000
      -131.40000000    -132.90000000    -134.40000000    -135.90000000    -137.40000000    -138.90000000    -140.40000000    -141.90000000    -143.40000000    -144.90000000    -146.40000000    -147.90000000    -149.40000000    -150.90000000    -152.40000000    -153.90000000    -155.40000000    -156.90000000    -158.40000000    -159.90000000
      -161.40000000    -162.90000000    -164.40000000    -165.90000000    -167.40000000    -168.90000000    -170.40000000    -171.90000000    -173.40000000    -174.90000000    -176.40000000    -177.90000000    -179.40000000    -180.90000000    -182.40000000    -183.90000000    -185.40000000    -186.90000000    -188.40000000    -189.90000000
      -191.40000000    -192.90000000    -187.07999983    -191.28999987    -194.93999996    -198.02000000    -200.90000000    -202.40000000    -203.90000000    -203.90999999    -205.32999995    -207.53000000    -209.40000000    -210.90000000    -212.40000000    -213.90000000    -215.40000000    -216.90000000    -218.40000000    -219.90000000
      -221.40000000    -222.90000000    -224.40000000    -225.90000000    -227.40000000    -228.90000000    -230.40000000    -231.90000000    -233.40000000    -234.90000000
       -11.40000000     -12.90000000     -14.40000000     -15.90000000     -17.40000000     -18.90000000     -20.40000000     -21.90000000     -23.40000000     -24.90000000     -26.40000000     -27.90000000     -29.40000000     -30.90000000     -32.40000000     -33.90000000     -35.40000000     -36.90000000     -38.40000000     -39.90000000
       -41.40000000     -42.90000000     -44.40000000     -45.90000000     -47.40000000     -48.90000000     -50.40000000     -51.90000000     -53.40000000     -54.90000000     -56.40000000     -57.90000000     -59.40000000     -60.90000000     -62.40000000     -63.90000000     -65.40000000     -66.90000000     -68.40000000     -69.90000000
       -71.40000000     -72.90000000     -74.40000000     -75.90000000     -77.40000000     -78.90000000     -80.40000000     -81.90000000     -83.40000000     -84.90000000     -86.40000000     -87.90000000     -89.40000000     -90.90000000     -92.40000000     -93.90000000     -95.40000000     -96.90000000     -98.40000000     -99.90000000
      -101.40000000    -102.90000000    -104.40000000    -105.90000000    -107.40000000    -108.90000000    -110.40000000    -111.90000000    -113.40000000    -114.90000000    -116.40000000    -117.90000000    -119.40000000    -120.90000000    -122.40000000    -123.90000000    -125.40000000    -126.90000000    -128.40000000    -129.90000000
      -131.40000000    -132.90000000    -134.40000000    -135.90000000    -137.40000000    -138.90000000    -140.40000000    -141.90000000    -143.40000000    -144.90000000    -146.40000000    -147.90000000    -149.40000000    -150.90000000    -152.40000000    -153.90000000    -155.40000000    -156.90000000    -158.40000000    -159.90000000
      -161.40000000    -162.90000000    -164.40000000    -165.90000000    -167.40000000    -168.90000000    -170.40000000    -171.90000000    -173.40000000    -174.90000000    -176.40000000    -177.90000000    -179.40000000    -180.90000000    -182.40000000    -183.90000000    -185.40000000    -186.90000000    -188.40000000    -189.90000000
      -191.40000000    -192.90000000    -187.24999990    -191.72999992    -194.99999990    -198.32000002    -199.90000000    -202.40000000    -203.90000000    -204.33000001    -205.99999999    -207.53000000    -209.40000000    -210.90000000    -212.40000000    -213.90000000    -215.40000000    -216.90000000    -218.40000000    -219.90000000
      -221.40000000    -222.90000000    -224.40000000    -225.90000000    -227.40000000    -228.90000000    -230.40000000    -231.90000000    -233.40000000    -234.90000000
       -11.40000000     -12.90000000     -14.40000000     -15.90000000     -17.40000000     -18.90000000     -20.40000000     -21.90000000     -23.40000000     -24.90000000     -26.40000000     -27.90000000     -29.40000000     -30.90000000     -32.40000000     -33.90000000     -35.40000000     -36.90000000     -38.40000000     -39.90000000
       -41.40000000     -42.90000000     -44.40000000     -45.90000000     -47.40000000     -48.90000000     -50.40000000     -51.90000000     -53.40000000     -54.90000000     -56.40000000     -57.90000000     -59.40000000     -60.90000000     -62.40000000     -63.90000000     -65.40000000     -66.90000000     -68.40000000     -69.90000000
       -71.40000000     -72.90000000     -74.40000000     -75.90000000     -77.40000000     -78.90000000     -80.40000000     -81.90000000     -83.40000000     -84.90000000     -86.40000000     -87.90000000     -89.40000000     -90.90000000     -92.40000000     -93.90000000     -95.40000000     -96.90000000     -98.40000000     -99.90000000
      -101.40000000    -102.90000000    -104.40000000    -105.90000000    -107.40000000    -108.90000000    -110.40000000    -111.90000000    -113.40000000    -114.90000000    -116.40000000    -117.90000000    -119.40000000    -120.90000000    -122.40000000    -123.90000000    -125.40000000    -126.90000000    -128.40000000    -129.90000000
      -131.40000000    -132.90000000    -134.40000000    -135.90000000    -137.40000000    -138.90000000    -140.40000000    -141.90000000    -143.40000000    -144.90000000    -146.40000000    -147.90000000    -149.40000000    -150.90000000    -152.40000000    -153.90000000    -155.40000000    -156.90000000    -158.40000000    -159.90000000
      -161.40000000    -162.90000000    -164.40000000    -165.90000000    -167.40000000    -168.90000000    -170.40000000    -171.90000000    -173.40000000    -174.90000000    -176.40000000    -177.90000000    -179.40000000    -180.90000000    -182.40000000    -183.90000000    -185.40000000    -186.90000000    -188.40000000    -189.90000000
      -191.40000000    -192.90000000    -186.63999977    -191.70999994    -195.86000004    -198.01000001    -199.35000005    -201.34000000    -201.69999995    -202.73999991    -206.90000000    -207.73000000    -209.40000000    -210.90000000    -212.40000000    -213.90000000    -215.40000000    -216.90000000    -218.40000000    -219.90000000
      -221.40000000    -222.90000000    -224.40000000    -225.90000000    -227.40000000    -228.90000000    -230.40000000    -231.90000000    -233.40000000    -234.90000000
       -11.40000000     -12.90000000     -14.40000000     -15.90000000     -17.40000000     -18.90000000     -20.40000000     -21.90000000     -23.40000000     -24.90000000     -26.40000000     -27.90000000     -29.40000000     -30.90000000     -32.40000000     -33.90000000     -35.40000000     -36.90000000     -38.40000000     -39.90000000
       -41.40000000     -42.90000000     -44.40000000     -45.90000000     -47.40000000     -48.90000000     -50.40000000     -51.90000000     -53.40000000     -54.90000000     -56.40000000     -57.90000000     -59.40000000     -60.90000000     -62.40000000     -63.90000000     -65.40000000     -66.90000000     -68.40000000     -69.90000000
       -71.40000000     -72.90000000     -74.40000000     -75.90000000     -77.40000000     -78.90000000     -80.40000000     -81.90000000     -83.40000000     -84.90000000     -86.40000000     -87.90000000     -89.40000000     -90.90000000     -92.40000000     -93.90000000     -95.40000000     -96.90000000     -98.40000000     -99.90000000
      -101.40000000    -102.90000000    -104.40000000    -105.90000000    -107.40000000    -108.90000000    -110.40000000    -111.90000000    -113.40000000    -114.90000000    -116.40000000    -117.90000000    -119.40000000    -120.90000000    -122.40000000    -123.90000000    -125.40000000    -126.90000000    -128.40000000    -129.90000000
      -131.40000000    -132.90000000    -134.40000000    -135.90000000    -137.40000000    -138.90000000    -140.40000000    -141.90000000    -143.40000000    -144.90000000    -146.40000000    -147.90000000    -149.40000000    -150.90000000    -152.40000000    -153.90000000    -155.40000000    -156.90000000    -158.40000000    -159.90000000
      -161.40000000    -162.90000000    -164.40000000    -165.90000000    -167.40000000    -168.90000000    -170.40000000    -171.90000000    -173.40000000    -174.90000000    -176.40000000    -177.90000000    -179.40000000    -180.90000000    -182.40000000    -183.90000000    -185.40000000    -186.90000000    -188.40000000    -189.90000000
      -191.40000000    -192.90000000    -187.57999983    -192.30000010    -195.07000008    -196.01999989    -179.19000092    -179.53999939    -168.06999817    -159.71999969    -181.77999916    -205.64000001    -209.40000000    -210.90000000    -212.40000000    -213.90000000    -215.40000000    -216.90000000    -218.40000000    -219.90000000
      -221.40000000    -222.90000000    -224.40000000    -225.90000000    -227.40000000    -228.90000000    -230.40000000    -231.90000000    -233.40000000    -234.90000000
       -11.40000000     -12.90000000     -14.40000000     -15.90000000     -17.40000000     -18.90000000     -20.40000000     -21.90000000     -23.40000000     -24.90000000     -26.40000000     -27.90000000     -29.40000000     -30.90000000     -32.40000000     -33.90000000     -35.40000000     -36.90000000     -38.40000000     -39.90000000
       -41.40000000     -42.90000000     -44.40000000     -45.90000000     -47.40000000     -48.90000000     -50.40000000     -51.90000000     -53.40000000     -54.90000000     -56.40000000     -57.90000000     -59.40000000     -60.90000000     -62.40000000     -63.90000000     -65.40000000     -66.90000000     -68.40000000     -69.90000000
       -71.40000000     -72.90000000     -74.40000000     -75.90000000     -77.40000000     -78.90000000     -80.40000000     -81.90000000     -83.40000000     -84.90000000     -86.40000000     -87.90000000     -89.40000000     -90.90000000     -92.40000000     -93.90000000     -95.40000000     -96.90000000     -98.40000000     -99.90000000
      -101.40000000    -102.90000000    -104.40000000    -105.90000000    -107.40000000    -108.90000000    -110.40000000    -111.90000000    -113.40000000    -114.90000000    -116.40000000    -117.90000000    -119.40000000    -120.90000000    -122.40000000    -123.90000000    -125.40000000    -126.90000000    -128.40000000    -129.90000000
      -131.40000000    -132.90000000    -134.40000000    -135.90000000    -137.40000000    -138.90000000    -140.40000000    -141.90000000    -143.40000000    -144.90000000    -146.40000000    -147.90000000    -149.40000000    -150.90000000    -152.40000000    -153.90000000    -155.40000000    -156.90000000    -158.40000000    -159.90000000
      -161.40000000    -162.90000000    -164.40000000    -165.90000000    -167.40000000    -168.90000000    -170.40000000    -171.90000000    -173.40000000    -174.90000000    -176.40000000    -177.90000000    -179.40000000    -180.90000000    -182.40000000    -183.90000000    -185.40000000    -186.90000000    -188.40000000    -189.90000000
      -191.40000000    -192.90000000    -189.32999983    -193.36000004    -196.37000003    -182.02999916    -174.68000069    -164.44999924    -165.44999924    -158.74999847    -156.37999954    -158.28999939    -207.76000001    -210.90000000    -212.40000000    -213.90000000    -215.40000000    -216.90000000    -218.40000000    -219.90000000
      -221.40000000    -222.90000000    -224.40000000    -225.90000000    -227.40000000    -228.90000000    -230.40000000    -231.90000000    -233.40000000    -234.90000000
       -11.40000000     -12.90000000     -14.40000000     -15.90000000     -17.40000000     -18.90000000     -20.40000000     -21.90000000     -23.40000000     -24.90000000     -26.40000000     -27.90000000     -29.40000000     -30.90000000     -32.40000000     -33.90000000     -35.40000000     -36.90000000     -38.40000000     -39.90000000
       -41.40000000     -42.90000000     -44.40000000     -45.90000000     -47.40000000     -48.90000000     -50.40000000     -51.90000000     -53.40000000     -54.90000000     -56.40000000     -57.90000000     -59.40000000     -60.90000000     -62.40000000     -63.90000000     -65.40000000     -66.90000000     -68.40000000     -69.90000000
       -71.40000000     -72.90000000     -74.40000000     -75.90000000     -77.40000000     -78.90000000     -80.40000000     -81.90000000     -83.40000000     -84.90000000     -86.40000000     -87.90000000     -89.40000000     -90.90000000     -92.40000000     -93.90000000     -95.40000000     -96.90000000     -98.40000000     -99.90000000
      -101.40000000    -102.90000000    -104.40000000    -105.90000000    -107.40000000    -108.90000000    -110.40000000    -111.90000000    -113.40000000    -114.90000000    -116.40000000    -117.90000000    -119.40000000    -120.90000000    -122.40000000    -123.90000000    -125.40000000    -126.90000000    -128.40000000    -129.90000000
      -131.40000000    -132.90000000    -134.40000000    -135.90000000    -137.40000000    -138.90000000    -140.40000000    -141.90000000    -143.40000000    -144.90000000    -146.40000000    -147.90000000    -149.40000000    -150.90000000    -152.40000000    -153.90000000    -155.40000000    -156.90000000    -158.40000000    -159.90000000
      -161.40000000    -162.90000000    -164.40000000    -165.90000000    -167.40000000    -168.90000000    -170.40000000    -171.90000000    -173.40000000    -174.90000000    -176.40000000    -177.90000000    -179.40000000    -180.90000000    -182.40000000    -183.90000000    -185.40000000    -186.90000000    -188.40000000    -189.90000000
      -191.40000000    -192.90000000    -188.13999977    -194.03000000    -197.29000000    -198.83000000    -182.34000053    -163.19999924    -162.74000015    -168.83999863    -159.74000015    -157.92999878    -156.33999863    -155.74999847    -160.78999939    -213.21999999    -215.40000000    -216.90000000    -218.40000000    -219.90000000
      -221.40000000    -222.90000000    -224.40000000    -225.90000000    -227.40000000    -228.90000000    -230.40000000    -231.90000000    -233.40000000    -234.90000000
       -11.40000000     -12.90000000     -14.40000000     -15.90000000     -17.40000000     -18.90000000     -20.40000000     -21.90000000     -23.40000000     -24.90000000     -26.40000000     -27.90000000     -29.40000000     -30.90000000     -32.40000000     -33.90000000     -35.40000000     -36.90000000     -38.40000000     -39.90000000
       -41.40000000     -42.90000000     -44.40000000     -45.90000000     -47.40000000     -48.90000000     -50.40000000     -51.90000000     -53.40000000     -54.90000000     -56.40000000     -57.90000000     -59.40000000     -60.90000000     -62.40000000     -63.90000000     -65.40000000     -66.90000000     -68.40000000     -69.90000000
       -71.40000000     -72.90000000     -74.40000000     -75.90000000     -77.40000000     -78.90000000     -80.40000000     -81.90000000     -83.40000000     -84.90000000     -86.40000000     -87.90000000     -89.40000000     -90.90000000     -92.40000000     -93.90000000     -95.40000000     -96.90000000     -98.40000000     -99.90000000
      -101.40000000    -102.90000000    -104.40000000    -105.90000000    -107.40000000    -108.90000000    -110.40000000    -111.90000000    -113.40000000    -114.90000000    -116.40000000    -117.90000000    -119.40000000    -120.90000000    -122.40000000    -123.90000000    -125.40000000    -126.90000000    -128.40000000    -129.90000000
      -131.40000000    -132.90000000    -134.40000000    -135.90000000    -137.40000000    -138.90000000    -140.40000000    -141.90000000    -143.40000000    -144.90000000    -146.40000000    -147.90000000    -149.40000000    -150.90000000    -152.40000000    -153.90000000    -155.40000000    -156.90000000    -158.40000000    -159.90000000
      -161.40000000    -162.90000000    -164.40000000    -165.90000000    -167.40000000    -168.90000000    -170.40000000    -171.90000000    -173.40000000    -174.90000000    -176.40000000    -177.90000000    -179.40000000    -180.90000000    -182.40000000    -183.90000000    -185.40000000    -186.90000000    -188.40000000    -189.90000000
      -191.40000000    -192.90000000    -187.88999977    -193.65000000    -197.33000000    -198.83000000    -178.83000031    -159.44999924    -155.01999893    -159.60999908    -153.08999863    -159.44999924    -157.96999969    -158.10999908    -166.74999847    -168.17999878    -215.40000000    -216.90000000    -218.40000000    -219.90000000
      -221.40000000    -222.90000000    -224.40000000    -225.90000000    -227.40000000    -228.90000000    -230.40000000    -231.90000000    -233.40000000    -234.90000000
       -11.40000000     -12.90000000     -14.40000000     -15.90000000     -17.40000000     -18.90000000     -20.40000000     -21.90000000     -23.40000000     -24.90000000     -26.40000000     -27.90000000     -29.40000000     -30.90000000     -32.40000000     -33.90000000     -35.40000000     -36.90000000     -38.40000000     -39.90000000
       -41.40000000     -42.90000000     -44.40000000     -45.90000000     -47.40000000     -48.90000000     -50.40000000     -51.90000000     -53.40000000     -54.90000000     -56.40000000     -57.90000000     -59.40000000     -60.90000000     -62.40000000     -63.90000000     -65.40000000     -66.90000000     -68.40000000     -69.90000000
       -71.40000000     -72.90000000     -74.40000000     -75.90000000     -77.40000000     -78.90000000     -80.40000000     -81.90000000     -83.40000000     -84.90000000     -86.40000000     -87.90000000     -89.40000000     -90.90000000     -92.40000000     -93.90000000     -95.40000000     -96.90000000     -98.40000000     -99.90000000
      -101.40000000    -102.90000000    -104.40000000    -105.90000000    -107.40000000    -108.90000000    -110.40000000    -111.90000000    -113.40000000    -114.90000000    -116.40000000    -117.90000000    -119.40000000    -120.90000000    -122.40000000    -123.90000000    -125.40000000    -126.90000000    -128.40000000    -129.90000000
      -131.40000000    -132.90000000    -134.40000000    -135.90000000    -137.40000000    -138.90000000    -140.40000000    -141.90000000    -143.40000000    -144.90000000    -146.40000000    -147.90000000    -149.40000000    -150.90000000    -152.40000000    -153.90000000    -155.40000000    -156.90000000    -158.40000000    -159.90000000
      -161.40000000    -162.90000000    -164.40000000    -165.90000000    -167.40000000    -168.90000000    -170.40000000    -171.90000000    -173.40000000    -174.90000000    -176.40000000    -177.90000000    -179.40000000    -180.90000000    -182.40000000    -183.90000000    -185.40000000    -186.90000000    -188.40000000    -189.90000000
      -191.40000000    -192.90000000    -189.47999992    -193.26999989    -197.33000000    -198.83000000    -200.45000000    -157.74999847    -154.05999985    -157.35999908    -160.83999863    -164.24999847    -163.15999832    -167.15999832    -171.78999939    -167.35999908    -179.19999924    -216.90000000    -218.40000000    -219.90000000
      -221.40000000    -222.90000000    -224.40000000    -225.90000000    -227.40000000    -228.90000000    -230.40000000    -231.90000000    -233.40000000    -234.90000000
       -11.40000000     -12.90000000     -14.40000000     -15.90000000     -17.40000000     -18.90000000     -20.40000000     -21.90000000     -23.40000000     -24.90000000     -26.40000000     -27.90000000     -29.40000000     -30.90000000     -32.40000000     -33.90000000     -35.40000000     -36.90000000     -38.40000000     -39.90000000
       -41.40000000     -42.90000000     -44.40000000     -45.90000000     -47.40000000     -48.90000000     -50.40000000     -51.90000000     -53.40000000     -54.90000000     -56.40000000     -57.90000000     -59.40000000     -60.90000000     -62.40000000     -63.90000000     -65.40000000     -66.90000000     -68.40000000     -69.90000000
       -71.40000000     -72.90000000     -74.40000000     -75.90000000     -77.40000000     -78.90000000     -80.40000000     -81.90000000     -83.40000000     -84.90000000     -86.40000000     -87.90000000     -89.40000000     -90.90000000     -92.40000000     -93.90000000     -95.40000000     -96.90000000     -98.40000000     -99.90000000
      -101.40000000    -102.90000000    -104.40000000    -105.90000000    -107.40000000    -108.90000000    -110.40000000    -111.90000000    -113.40000000    -114.90000000    -116.40000000    -117.90000000    -119.40000000    -120.90000000    -122.40000000    -123.90000000    -125.40000000    -126.90000000    -128.40000000    -129.90000000
      -131.40000000    -132.90000000    -134.40000000    -135.90000000    -137.40000000    -138.90000000    -140.40000000    -141.90000000    -143.40000000    -144.90000000    -146.40000000    -147.90000000    -149.40000000    -150.90000000    -152.40000000    -153.90000000    -155.40000000    -156.90000000    -158.40000000    -159.90000000
      -161.40000000    -162.90000000    -164.40000000    -165.90000000    -167.40000000    -168.90000000    -170.40000000    -171.90000000    -173.40000000    -174.90000000    -176.40000000    -177.90000000    -179.40000000    -180.90000000    -182.40000000    -183.90000000    -185.40000000    -186.90000000    -188.40000000    -189.90000000
      -191.40000000    -192.90000000    -191.48999991    -195.83000000    -197.33000000    -198.83000000    -200.33000000    -180.22999992    -155.40000000    -158.67999878    -167.51999893    -158.69999924    -157.03999939    -154.65000000    -168.83999863    -163.74000015    -168.99999847    -216.90000000    -218.40000000    -219.90000000
      -221.40000000    -222.90000000    -224.40000000    -225.90000000    -227.40000000    -228.90000000    -230.40000000    -231.90000000    -233.40000000    -234.90000000
       -11.40000000     -12.90000000     -14.40000000     -15.90000000     -17.40000000     -18.90000000     -20.40000000     -21.90000000     -23.40000000     -24.90000000     -26.40000000     -27.90000000     -29.40000000     -30.90000000     -32.40000000     -33.90000000     -35.40000000     -36.90000000     -38.40000000     -39.90000000
       -41.40000000     -42.90000000     -44.40000000     -45.90000000     -47.40000000     -48.90000000     -50.40000000     -51.90000000     -53.40000000     -54.90000000     -56.40000000     -57.90000000     -59.40000000     -60.90000000     -62.40000000     -63.90000000     -65.40000000     -66.90000000     -68.40000000     -69.90000000
       -71.40000000     -72.90000000     -74.40000000     -75.90000000     -77.40000000     -78.90000000     -80.40000000     -81.90000000     -83.40000000     -84.90000000     -86.40000000     -87.90000000     -89.40000000     -90.90000000     -92.40000000     -93.90000000     -95.40000000     -96.90000000     -98.40000000     -99.90000000
      -101.40000000    -102.90000000    -104.40000000    -105.90000000    -107.40000000    -108.90000000    -110.40000000    -111.90000000    -113.40000000    -114.90000000    -116.40000000    -117.90000000    -119.40000000    -120.90000000    -122.40000000    -123.90000000    -125.40000000    -126.90000000    -128.40000000    -129.90000000
      -131.40000000    -132.90000000    -134.40000000    -135.90000000    -137.40000000    -138.90000000    -140.40000000    -141.90000000    -143.40000000    -144.90000000    -146.40000000    -147.90000000    -149.40000000    -150.90000000    -152.40000000    -153.90000000    -155.40000000    -156.90000000    -158.40000000    -159.90000000
      -161.40000000    -162.90000000    -164.40000000    -165.90000000    -167.40000000    -168.90000000    -170.40000000    -171.90000000    -173.40000000    -174.90000000    -176.40000000    -177.90000000    -179.40000000    -180.90000000    -182.40000000    -183.90000000    -185.40000000    -186.90000000    -188.40000000    -189.90000000
      -191.40000000    -192.90000000    -189.13999977    -195.83000000    -197.33000000    -198.83000000    -200.33000000    -190.50000038    -159.99999847    -163.44999924    -168.03999939    -165.99000015    -165.67999878    -175.62999954    -184.76000061    -191.09000053    -168.05999985    -216.90000000    -218.40000000    -219.90000000
      -221.40000000    -222.90000000    -224.40000000    -225.90000000    -227.40000000    -228.90000000    -230.40000000    -231.90000000    -233.40000000    -234.90000000
       -11.40000000     -12.90000000     -14.40000000     -15.90000000     -17.40000000     -18.90000000     -20.40000000     -21.90000000     -23.40000000     -24.90000000     -26.40000000     -27.90000000     -29.40000000     -30.90000000     -32.40000000     -33.90000000     -35.40000000     -36.90000000     -38.40000000     -39.90000000
       -41.40000000     -42.90000000     -44.40000000     -45.90000000     -47.40000000     -48.90000000     -50.40000000     -51.90000000     -53.40000000     -54.90000000     -56.40000000     -57.90000000     -59.40000000     -60.90000000     -62.40000000     -63.90000000     -65.40000000     -66.90000000     -68.40000000     -69.90000000
       -71.40000000     -72.90000000     -74.40000000     -75.90000000     -77.40000000     -78.90000000     -80.40000000     -81.90000000     -83.40000000     -84.90000000     -86.40000000     -87.90000000     -89.40000000     -90.90000000     -92.40000000     -93.90000000     -95.40000000     -96.90000000     -98.40000000     -99.90000000
      -101.40000000    -102.90000000    -104.40000000    -105.90000000    -107.40000000    -108.90000000    -110.40000000    -111.90000000    -113.40000000    -114.90000000    -116.40000000    -117.90000000    -119.40000000    -120.90000000    -122.40000000    -123.90000000    -125.40000000    -126.90000000    -128.40000000    -129.90000000
      -131.40000000    -132.90000000    -134.40000000    -135.90000000    -137.40000000    -138.90000000    -140.40000000    -141.90000000    -143.40000000    -144.90000000    -146.40000000    -147.90000000    -149.40000000    -150.90000000    -152.40000000    -153.90000000    -155.40000000    -156.90000000    -158.40000000    -159.90000000
      -161.40000000    -162.90000000    -164.40000000    -165.90000000    -167.40000000    -168.90000000    -170.40000000    -171.90000000    -173.40000000    -174.90000000    -176.40000000    -177.90000000    -179.40000000    -180.90000000    -182.40000000    -183.90000000    -185.40000000    -186.90000000    -188.40000000    -189.90000000
      -191.40000000    -192.90000000    -187.68999996    -194.98999997    -197.33000000    -198.83000000    -200.33000000    -192.50999966    -166.60999908    -184.02000084    -189.45999947    -187.68000069    -180.33000031    -192.02999916    -184.11999931    -175.99999847    -166.28999939    -216.90000000    -218.40000000    -219.90000000
      -221.40000000    -222.90000000    -224.40000000    -225.90000000    -227.40000000    -228.90000000    -230.40000000    -231.90000000    -233.40000000    -234.90000000
       -11.40000000     -12.90000000     -14.40000000     -15.90000000     -17.40000000     -18.90000000     -20.40000000     -21.90000000     -23.40000000     -24.90000000     -26.40000000     -27.90000000     -29.40000000     -30.90000000     -32.40000000     -33.90000000     -35.40000000     -36.90000000     -38.40000000     -39.90000000
       -41.40000000     -42.90000000     -44.40000000     -45.90000000     -47.40000000     -48.90000000     -50.40000000     -51.90000000     -53.40000000     -54.90000000     -56.40000000     -57.90000000     -59.40000000     -60.90000000     -62.40000000     -63.90000000     -65.40000000     -66.90000000     -68.40000000     -69.90000000
       -71.40000000     -72.90000000     -74.40000000     -75.90000000     -77.40000000     -78.90000000     -80.40000000     -81.90000000     -83.40000000     -84.90000000     -86.40000000     -87.90000000     -89.40000000     -90.90000000     -92.40000000     -93.90000000     -95.40000000     -96.90000000     -98.40000000     -99.90000000
      -101.40000000    -102.90000000    -104.40000000    -105.90000000    -107.40000000    -108.90000000    -110.40000000    -111.90000000    -113.40000000    -114.90000000    -116.40000000    -117.90000000    -119.40000000    -120.90000000    -122.40000000    -123.90000000    -125.40000000    -126.90000000    -128.40000000    -129.90000000