BEGIN options
  SAVE_FLOWS
END options

BEGIN dimensions
  MAXBOUND  2883
END dimensions

BEGIN period  1
  1 3 84       2.57999992       0.00100000
  1 3 85      30.92000008       0.00100000
  1 3 86      35.97000122       0.00100000
  1 3 87      46.54000092       0.00100000
  1 3 88       1.74000001       0.00100000
  1 4 84      -0.93000000       0.00100000
  1 4 85      36.56000137       0.00100000
  1 4 86      38.22000122       0.00100000
  1 4 87      38.61000061       0.00100000
  1 4 88      48.70000076       0.00100000
  1 5 85      38.70000076       0.00100000
  1 5 86      46.93000031       0.00100000
  1 5 87      51.40000153       0.00100000
  1 5 88      50.22000122       0.00100000
  1 5 89      49.97000122       0.00100000
  1 5 90      42.34000015       0.00100000
  1 6 85      -0.93000000       0.00100000
  1 6 86      46.54000092       0.00100000
  1 6 87      44.81000137       0.00100000
  1 6 88      43.08000183       0.00100000
  1 6 89      51.97000122       0.00100000
  1 6 90      48.04000092       0.00100000
  1 6 91      45.93000031       0.00100000
  1 7 86      27.94000053       0.00100000
  1 7 87      35.84000015       0.00100000
  1 7 88      39.90999985       0.00100000
  1 7 89      34.68000031       0.00100000
  1 7 90      38.15000153       0.00100000
  1 7 91      29.76000023       0.00100000
  1 8 87      29.97999954       0.00100000
  1 8 88       7.02000046       0.00100000
  1 8 89       5.17000008       0.00100000
  1 8 90      27.94000053       0.00100000
  1 8 91      43.79000092       0.00100000
  1 9 87      26.70000076       0.00100000
  1 9 88      23.62000084       0.00100000
  1 10 85       5.67000008       0.00100000
  1 10 87       2.46000004       0.00100000
  1 13 90       0.83000004       0.00100000
  1 14 89       3.44000006       0.00100000
  1 14 90       1.17000008       0.00100000
  1 15 89      -0.93000000       0.00100000
  1 16 79      24.36000061       0.00100000
  1 16 80      -0.30000001       0.00100000
  1 16 88       0.11000001       0.00100000
  1 16 89      -0.93000000       0.00100000
  1 17 77      25.29999924       0.00100000
  1 17 78      -0.69999999       0.00100000
  1 17 88      -0.93000000       0.00100000
  1 17 89       1.10999990       0.00100000
  1 18 74      11.46000004       0.00100000
  1 18 75       2.84999990       0.00100000
  1 18 76      -0.19000000       0.00100000
  1 18 77      -0.75000000       0.00100000
  1 18 88       0.21000004       0.00100000
  1 18 89       1.06999993       0.00100000
  1 19 71      19.28000069       0.00100000
  1 19 72       6.34000015       0.00100000
  1 19 73      10.10000038       0.00100000
  1 19 74       4.82000017       0.00100000
  1 19 75      -0.80000000       0.00100000
  1 19 88       3.96000004       0.00100000
  1 19 89       0.77999997       0.00100000
  1 20 70      10.64000034       0.00100000
  1 20 71       3.67000008       0.00100000
  1 20 72       0.34000003       0.00100000
  1 20 73      -0.33999997       0.00100000
  1 20 74      -0.63999999       0.00100000
  1 20 89       1.09999990       0.00100000
  1 21 69       7.31999969       0.00100000
  1 21 70       3.92000008       0.00100000
  1 21 71      -0.32999998       0.00100000
  1 21 72      -0.56999999       0.00100000
  1 21 73      -0.56999999       0.00100000
  1 21 74      -0.72000000       0.00100000
  1 21 87       0.00999999       0.00100000
  1 22 68      14.11999989       0.00100000
  1 22 69       4.05000019       0.00100000
  1 22 70      -0.49000001       0.00100000
  1 22 71      -0.56999999       0.00100000
  1 22 72      -1.07000000       0.00100000
  1 22 73      -0.80000000       0.00100000
  1 22 87      -0.13000000       0.00100000
  1 22 88       0.12000000       0.00100000
  1 23 67      29.52000046       0.00100000
  1 23 68      13.22000027       0.00100000
  1 23 69       2.66000009       0.00100000
  1 23 70       0.39999998       0.00100000
  1 23 71       0.66999996       0.00100000
  1 23 72      -0.91000000       0.00100000
  1 23 73      -0.75000000       0.00100000
  1 23 75      -0.83000000       0.00100000
  1 23 88      -0.59999999       0.00100000
  1 24 66      28.51000023       0.00100000
  1 24 67      19.29999924       0.00100000
  1 24 68      11.52000046       0.00100000
  1 24 69       8.97000027       0.00100000
  1 24 70       5.75000000       0.00100000
  1 24 71       1.26999998       0.00100000
  1 24 72      -0.25000000       0.00100000
  1 24 73       0.37000000       0.00100000
  1 24 74      -0.50000000       0.00100000
  1 24 75      -0.89000000       0.00100000
  1 24 88       0.73000002       0.00100000
  1 25 66      23.31999969       0.00100000
  1 25 67      18.89999962       0.00100000
  1 25 68      13.84000015       0.00100000
  1 25 69       7.88000011       0.00100000
  1 25 70       5.05000019       0.00100000
  1 25 71       2.75000000       0.00100000
  1 25 72       0.63999999       0.00100000
  1 25 73       1.10999990       0.00100000
  1 25 74       1.04999995       0.00100000
  1 25 75      -0.43000001       0.00100000
  1 25 76      -0.50000000       0.00100000
  1 25 87       0.40999997       0.00100000
  1 25 88       1.13000011       0.00100000
  1 26 66      21.73999977       0.00100000
  1 26 67      17.47999954       0.00100000
  1 26 68      13.23999977       0.00100000
  1 26 69       8.39000034       0.00100000
  1 26 70       6.34000015       0.00100000
  1 26 71       5.63000011       0.00100000
  1 26 72       1.96000004       0.00100000
  1 26 73       1.80999994       0.00100000
  1 26 74       1.24000001       0.00100000
  1 26 75      -0.53999999       0.00100000
  1 26 76      -0.53999999       0.00100000
  1 26 87       3.32000017       0.00100000
  1 26 88       0.45000005       0.00100000
  1 27 55      82.68000031       0.00100000
  1 27 56      63.44000244       0.00100000
  1 27 57      61.22999954       0.00100000
  1 27 58      59.22000122       0.00100000
  1 27 59      57.08000183       0.00100000
  1 27 60      52.18000031       0.00100000
  1 27 61      47.34000015       0.00100000
  1 27 62      41.31999969       0.00100000
  1 27 63      36.09999847       0.00100000
  1 27 64      30.67000008       0.00100000
  1 27 65      25.39999962       0.00100000
  1 27 66      21.02000046       0.00100000
  1 27 67      16.65999985       0.00100000
  1 27 68      12.77999973       0.00100000
  1 27 69       8.93999958       0.00100000
  1 27 70       7.06999969       0.00100000
  1 27 71       4.25000000       0.00100000
  1 27 72       4.69000006       0.00100000
  1 27 73       5.40000010       0.00100000
  1 27 74       1.90000010       0.00100000
  1 27 75      -0.00999999       0.00100000
  1 27 76      -0.31999999       0.00100000
  1 27 86       0.12000000       0.00100000
  1 27 87       0.61000001       0.00100000
  1 27 88       0.50999999       0.00100000
  1 28 54     109.33999634       0.00100000
  1 28 55      69.94000244       0.00100000
  1 28 56      58.18000031       0.00100000
  1 28 57      52.75000000       0.00100000
  1 28 58      53.34000015       0.00100000
  1 28 59      51.68000031       0.00100000
  1 28 60      49.04000092       0.00100000
  1 28 61      44.09999847       0.00100000
  1 28 62      39.41999817       0.00100000
  1 28 63      34.86000061       0.00100000
  1 28 64      28.95999908       0.00100000
  1 28 65      23.62000084       0.00100000
  1 28 66      19.09000015       0.00100000
  1 28 67      15.39999962       0.00100000
  1 28 68      12.14000034       0.00100000
  1 28 69       8.60000038       0.00100000
  1 28 70       7.93000031       0.00100000
  1 28 71       7.00000000       0.00100000
  1 28 72       7.39000034       0.00100000
  1 28 73       3.63000011       0.00100000
  1 28 74       2.73000002       0.00100000
  1 28 75       0.39999998       0.00100000
  1 28 76       0.39999998       0.00100000
  1 28 77       0.04999995       0.00100000
  1 28 87       0.69000006       0.00100000
  1 28 88       1.65000010       0.00100000
  1 29 55      54.45999908       0.00100000
  1 29 56      50.18000031       0.00100000
  1 29 57      45.31000137       0.00100000
  1 29 58      46.66999817       0.00100000
  1 29 59      46.58000183       0.00100000
  1 29 60      43.04999924       0.00100000
  1 29 61      40.34000015       0.00100000
  1 29 62      35.86999893       0.00100000
  1 29 63      31.72000122       0.00100000
  1 29 64      26.47999954       0.00100000
  1 29 65      21.42000008       0.00100000
  1 29 66      17.76000023       0.00100000
  1 29 67      14.00000000       0.00100000
  1 29 68      11.21000004       0.00100000
  1 29 69      11.27000046       0.00100000
  1 29 70      10.89000034       0.00100000
  1 29 71       7.10000038       0.00100000
  1 29 72       6.57000017       0.00100000
  1 29 73       4.28000021       0.00100000
  1 29 74       2.89000010       0.00100000
  1 29 75       1.40000010       0.00100000
  1 29 76       0.63000000       0.00100000
  1 29 77       0.20000005       0.00100000
  1 29 78       0.50999999       0.00100000
  1 29 84      -0.32999998       0.00100000
  1 29 85       0.37000000       0.00100000
  1 29 87       0.75000000       0.00100000
  1 29 88       0.48000002       0.00100000
  1 30 56      43.40000153       0.00100000
  1 30 57      38.50000000       0.00100000
  1 30 58      41.18000031       0.00100000
  1 30 59      40.63999939       0.00100000
  1 30 60      38.31999969       0.00100000
  1 30 61      35.58000183       0.00100000
  1 30 62      32.72000122       0.00100000
  1 30 63      28.71999931       0.00100000
  1 30 64      24.31999969       0.00100000
  1 30 65      21.73999977       0.00100000
  1 30 66      16.53000069       0.00100000
  1 30 67      15.10000038       0.00100000
  1 30 68      13.10000038       0.00100000
  1 30 69      12.97999954       0.00100000
  1 30 70      11.64000034       0.00100000
  1 30 71       8.10999966       0.00100000
  1 30 72       6.63000011       0.00100000
  1 30 73       5.84000015       0.00100000
  1 30 74       3.21000004       0.00100000
  1 30 75       1.96000004       0.00100000
  1 30 76       0.78999996       0.00100000
  1 30 77       0.41999996       0.00100000
  1 30 78       0.79999995       0.00100000
  1 30 79       0.00999999       0.00100000
  1 30 80       0.26999998       0.00100000
  1 30 81       0.49000001       0.00100000
  1 30 82      -0.30000001       0.00100000
  1 30 83      -0.25000000       0.00100000
  1 30 84      -0.05000001       0.00100000
  1 30 85       0.29999995       0.00100000
  1 30 86       0.88000000       0.00100000
  1 30 87       1.05999994       0.00100000
  1 30 88       0.38999999       0.00100000
  1 31 55      44.75999832       0.00100000
  1 31 56      38.90000153       0.00100000
  1 31 57      33.79999924       0.00100000
  1 31 58      36.75999832       0.00100000
  1 31 59      35.77999878       0.00100000
  1 31 60      33.41999817       0.00100000
  1 31 61      31.22000122       0.00100000
  1 31 62      28.05999947       0.00100000
  1 31 63      24.79999924       0.00100000
  1 31 64      20.12000084       0.00100000
  1 31 65      19.00000000       0.00100000
  1 31 66      17.00000000       0.00100000
  1 31 67      15.50000000       0.00100000
  1 31 68      13.46000004       0.00100000
  1 31 69      12.11999989       0.00100000
  1 31 70      11.03999996       0.00100000
  1 31 71       8.18000031       0.00100000
  1 31 72       6.80000019       0.00100000
  1 31 73       5.40000010       0.00100000
  1 31 74       3.42000008       0.00100000
  1 31 75       1.64000010       0.00100000
  1 31 76       1.00000000       0.00100000
  1 31 77       0.98000002       0.00100000
  1 31 78       1.15000010       0.00100000
  1 31 79       0.88000000       0.00100000
  1 31 80       0.98000002       0.00100000
  1 31 81       0.84000003       0.00100000
  1 31 82       0.19000006       0.00100000
  1 31 83      -0.01999998       0.00100000
  1 31 84      -0.06999999       0.00100000
  1 31 85       0.91999996       0.00100000
  1 31 86       5.30000019       0.00100000
  1 31 87      -0.08999997       0.00100000
  1 31 88       0.96000004       0.00100000
  1 32 54      42.47999954       0.00100000
  1 32 55      38.99000168       0.00100000
  1 32 56      36.36000061       0.00100000
  1 32 57      35.09999847       0.00100000
  1 32 58      29.94000053       0.00100000
  1 32 59      31.56000137       0.00100000
  1 32 60      30.22999954       0.00100000
  1 32 61      27.63999939       0.00100000
  1 32 62      25.03000069       0.00100000
  1 32 63      23.44000053       0.00100000
  1 32 64      20.42000008       0.00100000
  1 32 65      18.26000023       0.00100000
  1 32 66      16.51000023       0.00100000
  1 32 67      15.29999924       0.00100000
  1 32 68      14.02000046       0.00100000
  1 32 69      13.19999981       0.00100000
  1 32 70      11.46000004       0.00100000
  1 32 71      10.57999992       0.00100000
  1 32 72      10.03999996       0.00100000
  1 32 73       6.48000002       0.00100000
  1 32 74       3.73000002       0.00100000
  1 32 75       2.26999998       0.00100000
  1 32 76       1.56999993       0.00100000
  1 32 77       1.75999999       0.00100000
  1 32 78       1.80999994       0.00100000
  1 32 79       1.52999997       0.00100000
  1 32 80       1.57999992       0.00100000
  1 32 81       1.25000000       0.00100000
  1 32 82       0.49000001       0.00100000
  1 32 83       0.11000001       0.00100000
  1 32 84      -0.05000001       0.00100000
  1 32 85       0.25000000       0.00100000
  1 32 86      -0.59999999       0.00100000
  1 32 87       0.54999995       0.00100000
  1 32 88       1.25000000       0.00100000
  1 33 53      39.68999863       0.00100000
  1 33 56      34.56000137       0.00100000
  1 33 57      27.68000031       0.00100000
  1 33 58      28.37999916       0.00100000
  1 33 59      25.18000031       0.00100000
  1 33 60      26.95000076       0.00100000
  1 33 61      24.90999985       0.00100000
  1 33 62      19.76000023       0.00100000
  1 33 63      21.12000084       0.00100000
  1 33 64      19.52000046       0.00100000
  1 33 65      19.10000038       0.00100000
  1 33 66      17.45999908       0.00100000
  1 33 67      15.42000008       0.00100000
  1 33 68      16.87000084       0.00100000
  1 33 69      14.47999954       0.00100000
  1 33 70      12.93999958       0.00100000
  1 33 71      11.19999981       0.00100000
  1 33 72       9.68999958       0.00100000
  1 33 73       7.59000015       0.00100000
  1 33 74       5.90000010       0.00100000
  1 33 75       2.73000002       0.00100000
  1 33 76       2.58999991       0.00100000
  1 33 77       2.38000011       0.00100000
  1 33 78       2.58999991       0.00100000
  1 33 79       2.17000008       0.00100000
  1 33 80       1.88000011       0.00100000
  1 33 81       1.50000000       0.00100000
  1 33 82       0.99000001       0.00100000
  1 33 83       0.87000000       0.00100000
  1 33 84       0.63999999       0.00100000
  1 33 85       0.44000006       0.00100000
  1 33 86      -0.06000000       0.00100000
  1 33 87       0.19000006       0.00100000
  1 33 88       1.34999990       0.00100000
  1 34 53      32.91999817       0.00100000
  1 34 54      31.08000183       0.00100000
  1 34 57      26.04000092       0.00100000
  1 34 58      23.37999916       0.00100000
  1 34 59      23.68000031       0.00100000
  1 34 60      23.57999992       0.00100000
  1 34 61      20.81999969       0.00100000
  1 34 62      17.78000069       0.00100000
  1 34 63      18.89999962       0.00100000
  1 34 64      20.36000061       0.00100000
  1 34 65      20.34000015       0.00100000
  1 34 66      20.02000046       0.00100000
  1 34 67      18.20000076       0.00100000
  1 34 68      15.09000015       0.00100000
  1 34 69      15.05999947       0.00100000
  1 34 70      12.69999981       0.00100000
  1 34 71      11.18000031       0.00100000
  1 34 72       9.93999958       0.00100000
  1 34 73       8.06000042       0.00100000
  1 34 74       6.23000002       0.00100000
  1 34 75       3.59000015       0.00100000
  1 34 76       4.44000006       0.00100000
  1 34 77       2.83999991       0.00100000
  1 34 78       2.88000011       0.00100000
  1 34 79       2.75000000       0.00100000
  1 34 80       2.46000004       0.00100000
  1 34 81       1.65000010       0.00100000
  1 34 82       1.52999997       0.00100000
  1 34 83       1.16000009       0.00100000
  1 34 84       0.87000000       0.00100000
  1 34 85       1.05999994       0.00100000
  1 34 86       0.59000003       0.00100000
  1 35 52      59.36000061       0.00100000
  1 35 53      43.04999924       0.00100000
  1 35 54      36.90000153       0.00100000
  1 35 55      31.81999969       0.00100000
  1 35 67      17.87999916       0.00100000
  1 35 68      15.87999916       0.00100000
  1 35 69      14.52999973       0.00100000
  1 35 70      13.81000042       0.00100000
  1 35 71      11.22999954       0.00100000
  1 35 72       9.14999962       0.00100000
  1 35 73       8.31000042       0.00100000
  1 35 74       6.94000006       0.00100000
  1 35 75       5.30000019       0.00100000
  1 35 76       4.25000000       0.00100000
  1 35 77       4.19000006       0.00100000
  1 35 78       4.82000017       0.00100000
  1 35 79       1.82999992       0.00100000
  1 35 80       3.59000015       0.00100000
  1 35 81       2.96000004       0.00100000
  1 35 82       2.78999996       0.00100000
  1 35 83       1.93000007       0.00100000
  1 35 84       2.08999991       0.00100000
  1 35 85       1.48000002       0.00100000
  1 35 88       0.63000000       0.00100000
  1 36 52      72.34999847       0.00100000
  1 36 53      58.16999817       0.00100000
  1 36 54      55.47999954       0.00100000
  1 36 55      38.16999817       0.00100000
  1 36 56      32.81999969       0.00100000
  1 36 57      29.30999947       0.00100000
  1 36 58      26.60000038       0.00100000
  1 36 59      24.92000008       0.00100000
  1 36 60      23.87999916       0.00100000
  1 36 61      20.44000053       0.00100000
  1 36 62      20.47999954       0.00100000
  1 36 63      18.29999924       0.00100000
  1 36 64      15.09000015       0.00100000
  1 36 65      16.10000038       0.00100000
  1 36 68      11.81999969       0.00100000
  1 36 69      13.56000042       0.00100000
  1 36 70      11.56999969       0.00100000
  1 36 71      11.06999969       0.00100000
  1 36 72       8.81000042       0.00100000
  1 36 73       8.43999958       0.00100000
  1 36 74       6.78000021       0.00100000
  1 36 75       6.23000002       0.00100000
  1 36 76       5.30000019       0.00100000
  1 36 77       4.69000006       0.00100000
  1 36 78       4.57000017       0.00100000
  1 36 79       4.07000017       0.00100000
  1 36 80       3.59000015       0.00100000
  1 36 81       4.30000019       0.00100000
  1 36 87       0.72000003       0.00100000
  1 36 88      -0.13000000       0.00100000
  1 37 51     109.15000153       0.00100000
  1 37 52      69.69999695       0.00100000
  1 37 53      62.47999954       0.00100000
  1 37 54      75.13999939       0.00100000
  1 37 55      57.15999985       0.00100000
  1 37 56      53.38000107       0.00100000
  1 37 57      36.02000046       0.00100000
  1 37 58      28.94000053       0.00100000
  1 37 59      26.63999939       0.00100000
  1 37 60      23.31999969       0.00100000
  1 37 61      22.22999954       0.00100000
  1 37 62      18.77000046       0.00100000
  1 37 63      17.70000076       0.00100000
  1 37 64      17.86000061       0.00100000
  1 37 65      15.29999924       0.00100000
  1 37 66      14.35000038       0.00100000
  1 37 70      11.39000034       0.00100000
  1 37 71      10.18000031       0.00100000
  1 37 72       8.81999969       0.00100000
  1 37 73       8.35999966       0.00100000
  1 37 74       7.81000042       0.00100000
  1 37 75       6.71000004       0.00100000
  1 37 76       5.94000006       0.00100000
  1 37 77       5.80000019       0.00100000
  1 37 78       5.07000017       0.00100000
  1 37 83       2.40000010       0.00100000
  1 37 84       1.97000003       0.00100000
  1 37 85       1.44000006       0.00100000
  1 37 86       0.94000006       0.00100000
  1 37 87       0.46000004       0.00100000
  1 37 88       1.19000006       0.00100000
  1 38 50     133.11000061       0.00100000
  1 38 51      88.12999725       0.00100000
  1 38 52      71.66000366       0.00100000
  1 38 53      62.84000015       0.00100000
  1 38 54      50.61999893       0.00100000
  1 38 55      46.43999863       0.00100000
  1 38 56      43.59999847       0.00100000
  1 38 57      46.18000031       0.00100000
  1 38 58      29.38999939       0.00100000
  1 38 59      29.04000092       0.00100000
  1 38 60      28.95000076       0.00100000
  1 38 61      31.22999954       0.00100000
  1 38 62      26.95000076       0.00100000
  1 38 63      17.71999931       0.00100000
  1 38 64      16.29999924       0.00100000
  1 38 65      14.19999981       0.00100000
  1 38 66      11.40999985       0.00100000
  1 38 67      12.56999969       0.00100000
  1 38 73       8.97999954       0.00100000
  1 38 74       8.56000042       0.00100000
  1 38 75       7.93000031       0.00100000
  1 38 76       7.63000011       0.00100000
  1 38 80       4.28000021       0.00100000
  1 38 81       4.01000023       0.00100000
  1 38 82       3.11000013       0.00100000
  1 38 83       2.09999990       0.00100000
  1 38 84       1.75000000       0.00100000
  1 38 85       1.13000011       0.00100000
  1 38 86       0.87000000       0.00100000
  1 38 87       0.28999996       0.00100000
  1 38 88       1.18000007       0.00100000
  1 39 44     202.67999268       0.00100000
  1 39 45     185.39999390       0.00100000
  1 39 46     169.24000549       0.00100000
  1 39 47     157.69999695       0.00100000
  1 39 48     129.13999939       0.00100000
  1 39 49     122.50000000       0.00100000
  1 39 50      86.48000336       0.00100000
  1 39 51      73.54000092       0.00100000
  1 39 52      60.72000122       0.00100000
  1 39 53      58.04000092       0.00100000
  1 39 54      53.70000076       0.00100000
  1 39 55      59.70000076       0.00100000
  1 39 56      41.59999847       0.00100000
  1 39 57      39.77999878       0.00100000
  1 39 58      37.54000092       0.00100000
  1 39 59      37.97999954       0.00100000
  1 39 60      39.88000107       0.00100000
  1 39 61      34.13999939       0.00100000
  1 39 62      32.97999954       0.00100000
  1 39 63      28.21999931       0.00100000
  1 39 64      21.95999908       0.00100000
  1 39 65      13.69999981       0.00100000
  1 39 66      10.15999985       0.00100000
  1 39 67      11.42000008       0.00100000
  1 39 68      11.18999958       0.00100000
  1 39 69      10.81000042       0.00100000
  1 39 70      10.68999958       0.00100000
  1 39 71      10.30000019       0.00100000
  1 39 78       5.48000002       0.00100000
  1 39 79       4.90000010       0.00100000
  1 39 80       4.92000008       0.00100000
  1 39 81       4.98000002       0.00100000
  1 39 82       2.50999999       0.00100000
  1 39 83       2.18000007       0.00100000
  1 39 84       1.09999990       0.00100000
  1 39 85       1.48000002       0.00100000
  1 39 86       1.09999990       0.00100000
  1 39 87       0.38000000       0.00100000
  1 39 88       0.75000000       0.00100000
  1 40 44     152.96000671       0.00100000
  1 40 45     146.32000732       0.00100000
  1 40 46     128.08999634       0.00100000
  1 40 47     113.77999878       0.00100000
  1 40 48     104.19999695       0.00100000
  1 40 49      98.23999786       0.00100000
  1 40 50      77.12000275       0.00100000
  1 40 51      70.19999695       0.00100000
  1 40 52      98.66999817       0.00100000
  1 40 53      98.45999908       0.00100000
  1 40 54      71.69999695       0.00100000
  1 40 55      59.95999908       0.00100000
  1 40 56      45.74000168       0.00100000
  1 40 57      76.06999969       0.00100000
  1 40 58      68.93000031       0.00100000
  1 40 59      48.83000183       0.00100000
  1 40 60      37.63999939       0.00100000
  1 40 61      35.52000046       0.00100000
  1 40 62      32.15999985       0.00100000
  1 40 63      28.84000015       0.00100000
  1 40 64      22.70999908       0.00100000
  1 40 65      20.15999985       0.00100000
  1 40 66      21.67000008       0.00100000
  1 40 67      17.31999969       0.00100000
  1 40 68      10.27000046       0.00100000
  1 40 69       9.77000046       0.00100000
  1 40 70       9.77999973       0.00100000
  1 40 71       9.35000038       0.00100000
  1 40 72       9.22000027       0.00100000
  1 40 73       9.39000034       0.00100000
  1 40 74       8.72999954       0.00100000
  1 40 75       8.76000023       0.00100000
  1 40 76       7.27000046       0.00100000
  1 40 77       5.36000013       0.00100000
  1 40 78       6.17000008       0.00100000
  1 40 79       4.59000015       0.00100000
  1 40 80       4.03000021       0.00100000
  1 40 81       3.32000017       0.00100000
  1 40 82       2.51999998       0.00100000
  1 40 83       2.08999991       0.00100000
  1 40 84       1.51999998       0.00100000
  1 40 85       1.72000003       0.00100000
  1 40 86       1.00999999       0.00100000
  1 40 87       0.62000000       0.00100000
  1 40 88       0.08000004       0.00100000
  1 41 45     131.60000610       0.00100000
  1 41 46     124.00000000       0.00100000
  1 41 47     106.40000153       0.00100000
  1 41 48      94.38999939       0.00100000
  1 41 49      88.84999847       0.00100000
  1 41 50     100.95999908       0.00100000
  1 41 51      88.30000305       0.00100000
  1 41 52      90.01999664       0.00100000
  1 41 53      71.30999756       0.00100000
  1 41 54      71.00000000       0.00100000
  1 41 55      66.04000092       0.00100000
  1 41 56      79.55999756       0.00100000
  1 41 57      72.48000336       0.00100000
  1 41 58      53.11000061       0.00100000
  1 41 59      43.56999969       0.00100000
  1 41 60      39.63000107       0.00100000
  1 41 61      35.00999832       0.00100000
  1 41 62      29.80999947       0.00100000
  1 41 63      31.02000046       0.00100000
  1 41 64      26.02000046       0.00100000
  1 41 65      23.18000031       0.00100000
  1 41 66      21.44000053       0.00100000
  1 41 67      21.84000015       0.00100000
  1 41 68      20.55999947       0.00100000
  1 41 69      17.79999924       0.00100000
  1 41 70       9.60000038       0.00100000
  1 41 71       7.93000031       0.00100000
  1 41 72       9.93000031       0.00100000
  1 41 73       8.06999969       0.00100000
  1 41 74       8.35999966       0.00100000
  1 41 75       7.46000004       0.00100000
  1 41 76       7.09000015       0.00100000
  1 41 77       6.32000017       0.00100000
  1 41 78       5.42000008       0.00100000
  1 41 79       4.50000000       0.00100000
  1 41 80       3.88000011       0.00100000
  1 41 81       3.44000006       0.00100000
  1 41 82       2.91000009       0.00100000
  1 41 83       2.20000005       0.00100000
  1 41 84       1.63000011       0.00100000
  1 41 85       1.50000000       0.00100000
  1 41 86       3.75000000       0.00100000
  1 41 87       0.60000002       0.00100000
  1 41 88      -0.59000000       0.00100000
  1 42 47     122.04000092       0.00100000
  1 42 48     110.62999725       0.00100000
  1 42 49     103.26000214       0.00100000
  1 42 50      99.05999756       0.00100000
  1 42 51      91.87000275       0.00100000
  1 42 52      88.69999695       0.00100000
  1 42 53      87.22000122       0.00100000
  1 42 54      85.76000214       0.00100000
  1 42 55      81.81999969       0.00100000
  1 42 56      78.98000336       0.00100000
  1 42 57      55.34999847       0.00100000
  1 42 58      47.11999893       0.00100000
  1 42 59      44.93999863       0.00100000
  1 42 60      42.43999863       0.00100000
  1 42 61      40.75999832       0.00100000
  1 42 62      34.77999878       0.00100000
  1 42 63      32.38000107       0.00100000
  1 42 64      26.80999947       0.00100000
  1 42 65      25.65999985       0.00100000
  1 42 66      21.57999992       0.00100000
  1 42 67      22.26000023       0.00100000
  1 42 68      20.73999977       0.00100000
  1 42 69      17.89999962       0.00100000
  1 42 70      14.10000038       0.00100000
  1 42 71      11.80000019       0.00100000
  1 42 72      10.97000027       0.00100000
  1 42 73      10.26000023       0.00100000
  1 42 74       9.46000004       0.00100000
  1 42 75       8.85000038       0.00100000
  1 42 76       8.10999966       0.00100000
  1 42 77       7.14000034       0.00100000
  1 42 78       7.10000038       0.00100000
  1 42 79       5.80000019       0.00100000
  1 42 80       5.00000000       0.00100000
  1 42 81       4.38000011       0.00100000
  1 42 82       3.42000008       0.00100000
  1 42 83       2.42000008       0.00100000
  1 42 84       2.16000009       0.00100000
  1 42 85       1.15000010       0.00100000
  1 42 86       0.63000000       0.00100000
  1 42 87       0.49000001       0.00100000
  1 42 88       1.25000000       0.00100000
  1 43 44     173.53999329       0.00100000
  1 43 45     133.80000305       0.00100000
  1 43 46     110.31999969       0.00100000
  1 43 47     110.69999695       0.00100000
  1 43 48     105.83999634       0.00100000
  1 43 49     101.45999908       0.00100000
  1 43 50     100.55999756       0.00100000
  1 43 51      95.76000214       0.00100000
  1 43 52      92.45999908       0.00100000
  1 43 53      89.44000244       0.00100000
  1 43 54      78.90000153       0.00100000
  1 43 55      62.40000153       0.00100000
  1 43 56      57.09999847       0.00100000
  1 43 57      55.74000168       0.00100000
  1 43 58      47.86000061       0.00100000
  1 43 59      47.09999847       0.00100000
  1 43 60      45.29999924       0.00100000