BEGIN griddata
  strt
    INTERNAL  FACTOR  1.0
        -9.00000000      -9.00000000      -9.00000000      -9.00000000      -9.00000000      -9.00000000      -9.00000000      -9.00000000      -9.00000000      -9.00000000      -9.00000000      -9.00000000      -9.00000000      -9.00000000      -9.00000000      -9.00000000      -9.00000000      -9.00000000      -9.00000000      -9.00000000
        -9.00000000      -9.00000000      -9.00000000      -9.00000000      -9.00000000      -9.00000000      -9.00000000      -9.00000000      -9.00000000      -9.00000000      -9.00000000      -9.00000000      -9.00000000      -9.00000000      -9.00000000      -9.00000000      -9.00000000      -9.00000000      -9.00000000      -9.00000000
        -9.00000000      -9.00000000      -9.00000000      -9.00000000      -9.00000000      -9.00000000      -9.00000000      -9.00000000      -9.00000000      -9.00000000      -9.00000000      -9.00000000      -9.00000000      -9.00000000      -9.00000000      -9.00000000      -9.00000000      -9.00000000      -9.00000000      -9.00000000
        -9.00000000      -9.00000000      -9.00000000      -9.00000000      -9.00000000      -9.00000000      -9.00000000      -9.00000000      -9.00000000      -9.00000000      -9.00000000      -9.00000000      -9.00000000      -9.00000000      -9.00000000      -9.00000000      -9.00000000      -9.00000000      -9.00000000      -9.00000000
        -9.00000000      -9.00000000      -9.00000000      -9.00000000      -9.00000000      -9.00000000      -9.00000000      -9.00000000      -9.00000000      -9.00000000      -9.00000000      -9.00000000      -9.00000000      -9.00000000      -9.00000000      -9.00000000      -9.00000000      -9.00000000      -9.00000000      -9.00000000
        -9.00000000      -9.00000000      -9.00000000      -9.00000000      -9.00000000      -9.00000000      -9.00000000      -9.00000000      -9.00000000      -9.00000000      -9.00000000      -9.00000000      -9.00000000      -9.00000000      -9.00000000      -9.00000000      -9.00000000      -9.00000000      -9.00000000      -9.00000000
        -9.00000000      -9.00000000      -9.00000000      -9.00000000      -9.00000000      -9.00000000      -9.00000000      -9.00000000      -9.00000000      -9.00000000      -1.67999983      -4.38999987      -6.53999996      -7.93000031      -9.50000000      -6.15000010      -9.50000000      -8.46000004      -7.80999947      -8.51000023
        -8.56000042      -9.00000000      -9.00000000      -9.00000000      -9.00000000      -9.00000000      -9.00000000      -9.00000000      -9.00000000      -9.00000000
        -9.00000000      -9.00000000      -9.00000000      -9.00000000      -9.00000000      -9.00000000      -9.00000000      -9.00000000      -9.00000000      -9.00000000      -9.00000000      -9.00000000      -9.00000000      -9.00000000      -9.00000000      -9.00000000      -9.00000000      -9.00000000      -9.00000000      -9.00000000
        -9.00000000      -9.00000000      -9.00000000      -9.00000000      -9.00000000      -9.00000000      -9.00000000      -9.00000000      -9.00000000      -9.00000000      -9.00000000      -9.00000000      -9.00000000      -9.00000000      -9.00000000      -9.00000000      -9.00000000      -9.00000000      -9.00000000      -9.00000000
        -9.00000000      -9.00000000      -9.00000000      -9.00000000      -9.00000000      -9.00000000      -9.00000000      -9.00000000      -9.00000000      -9.00000000      -9.00000000      -9.00000000      -9.00000000      -9.00000000      -9.00000000      -9.00000000      -9.00000000      -9.00000000      -9.00000000      -9.00000000
        -9.00000000      -9.00000000      -9.00000000      -9.00000000      -9.00000000      -9.00000000      -9.00000000      -9.00000000      -9.00000000      -9.00000000      -9.00000000      -9.00000000      -9.00000000      -9.00000000      -9.00000000      -9.00000000      -9.00000000      -9.00000000      -9.00000000      -9.00000000
        -9.00000000      -9.00000000      -9.00000000      -9.00000000      -9.00000000      -9.00000000      -9.00000000      -9.00000000      -9.00000000      -9.00000000      -9.00000000      -9.00000000      -9.00000000      -9.00000000      -9.00000000      -9.00000000      -9.00000000      -9.00000000      -9.00000000      -9.00000000
        -9.00000000      -9.00000000      -9.00000000      -9.00000000      -9.00000000      -9.00000000      -9.00000000      -9.00000000      -9.00000000      -9.00000000      -9.00000000      -9.00000000      -9.00000000      -9.00000000      -9.00000000      -9.00000000      -9.00000000      -9.00000000      -9.00000000      -9.00000000
        -9.00000000      -9.00000000      -9.00000000      -9.00000000      -9.00000000      -9.00000000      -9.00000000      -9.00000000      -9.00000000      -9.00000000      -1.84999990      -4.82999992      -6.59999990      -6.93000031      -8.81999969      -9.50000000      -9.50000000      -9.10999966      -8.22999954      -8.77000046
        -8.31999969      -9.00000000      -9.00000000      -9.00000000      -9.00000000      -9.00000000      -9.00000000      -9.00000000      -9.00000000      -9.00000000
        -9.00000000      -9.00000000      -9.00000000      -9.00000000      -9.00000000      -9.00000000      -9.00000000      -9.00000000      -9.00000000      -9.00000000      -9.00000000      -9.00000000      -9.00000000      -9.00000000      -9.00000000      -9.00000000      -9.00000000      -9.00000000      -9.00000000      -9.00000000
        -9.00000000      -9.00000000      -9.00000000      -9.00000000      -9.00000000      -9.00000000      -9.00000000      -9.00000000      -9.00000000      -9.00000000      -9.00000000      -9.00000000      -9.00000000      -9.00000000      -9.00000000      -9.00000000      -9.00000000      -9.00000000      -9.00000000      -9.00000000
        -9.00000000      -9.00000000      -9.00000000      -9.00000000      -9.00000000      -9.00000000      -9.00000000      -9.00000000      -9.00000000      -9.00000000      -9.00000000      -9.00000000      -9.00000000      -9.00000000      -9.00000000      -9.00000000      -9.00000000      -9.00000000      -9.00000000      -9.00000000
        -9.00000000      -9.00000000      -9.00000000      -9.00000000      -9.00000000      -9.00000000      -9.00000000      -9.00000000      -9.00000000      -9.00000000      -9.00000000      -9.00000000      -9.00000000      -9.00000000      -9.00000000      -9.00000000      -9.00000000      -9.00000000      -9.00000000      -9.00000000
        -9.00000000      -9.00000000      -9.00000000      -9.00000000      -9.00000000      -9.00000000      -9.00000000      -9.00000000      -9.00000000      -9.00000000      -9.00000000      -9.00000000      -9.00000000      -9.00000000      -9.00000000      -9.00000000      -9.00000000      -9.00000000      -9.00000000      -9.00000000
        -9.00000000      -9.00000000      -9.00000000      -9.00000000      -9.00000000      -9.00000000      -9.00000000      -9.00000000      -9.00000000      -9.00000000      -9.00000000      -9.00000000      -9.00000000      -9.00000000      -9.00000000      -9.00000000      -9.00000000      -9.00000000      -9.00000000      -9.00000000
        -9.00000000      -9.00000000      -9.00000000      -9.00000000      -9.00000000      -9.00000000      -9.00000000      -9.00000000      -9.00000000      -9.00000000      -1.23999977      -4.80999994      -7.46000004      -8.22999954      -6.60999966      -8.27000046      -7.50000000      -6.92000008      -7.61999989      -9.50000000
        -8.05000019      -9.00000000      -9.00000000      -9.00000000      -9.00000000      -9.00000000      -9.00000000      -9.00000000      -9.00000000      -9.00000000
        -9.00000000      -9.00000000      -9.00000000      -9.00000000      -9.00000000      -9.00000000      -9.00000000      -9.00000000      -9.00000000      -9.00000000      -9.00000000      -9.00000000      -9.00000000      -9.00000000      -9.00000000      -9.00000000      -9.00000000      -9.00000000      -9.00000000      -9.00000000
        -9.00000000      -9.00000000      -9.00000000      -9.00000000      -9.00000000      -9.00000000      -9.00000000      -9.00000000      -9.00000000      -9.00000000      -9.00000000      -9.00000000      -9.00000000      -9.00000000      -9.00000000      -9.00000000      -9.00000000      -9.00000000      -9.00000000      -9.00000000
        -9.00000000      -9.00000000      -9.00000000      -9.00000000      -9.00000000      -9.00000000      -9.00000000      -9.00000000      -9.00000000      -9.00000000      -9.00000000      -9.00000000      -9.00000000      -9.00000000      -9.00000000      -9.00000000      -9.00000000      -9.00000000      -9.00000000      -9.00000000
        -9.00000000      -9.00000000      -9.00000000      -9.00000000      -9.00000000      -9.00000000      -9.00000000      -9.00000000      -9.00000000      -9.00000000      -9.00000000      -9.00000000      -9.00000000      -9.00000000      -9.00000000      -9.00000000      -9.00000000      -9.00000000      -9.00000000      -9.00000000
        -9.00000000      -9.00000000      -9.00000000      -9.00000000      -9.00000000      -9.00000000      -9.00000000      -9.00000000      -9.00000000      -9.00000000      -9.00000000      -9.00000000      -9.00000000      -9.00000000      -9.00000000      -9.00000000      -9.00000000      -9.00000000      -9.00000000      -9.00000000
        -9.00000000      -9.00000000      -9.00000000      -9.00000000      -9.00000000      -9.00000000      -9.00000000      -9.00000000      -9.00000000      -9.00000000      -9.00000000      -9.00000000      -9.00000000      -9.00000000      -9.00000000      -9.00000000      -9.00000000      -9.00000000      -9.00000000      -9.00000000
        -9.00000000      -9.00000000      -9.00000000      -9.00000000      -9.00000000      -9.00000000      -9.00000000      -9.00000000      -9.00000000      -9.00000000      -2.17999983      -5.40000010      -6.67000008      -5.90000010       6.89000034      11.47999954    -139.30000305    -137.89999390    -136.39999390      -6.34999990
        -8.56000042      -9.00000000      -9.00000000      -9.00000000      -9.00000000      -9.00000000      -9.00000000      -9.00000000      -9.00000000      -9.00000000
        -9.00000000      -9.00000000      -9.00000000      -9.00000000      -9.00000000      -9.00000000      -9.00000000      -9.00000000      -9.00000000      -9.00000000      -9.00000000      -9.00000000      -9.00000000      -9.00000000      -9.00000000      -9.00000000      -9.00000000      -9.00000000      -9.00000000      -9.00000000
        -9.00000000      -9.00000000      -9.00000000      -9.00000000      -9.00000000      -9.00000000      -9.00000000      -9.00000000      -9.00000000      -9.00000000      -9.00000000      -9.00000000      -9.00000000      -9.00000000      -9.00000000      -9.00000000      -9.00000000      -9.00000000      -9.00000000      -9.00000000
        -9.00000000      -9.00000000      -9.00000000      -9.00000000      -9.00000000      -9.00000000      -9.00000000      -9.00000000      -9.00000000      -9.00000000      -9.00000000      -9.00000000      -9.00000000      -9.00000000      -9.00000000      -9.00000000      -9.00000000      -9.00000000      -9.00000000      -9.00000000
        -9.00000000      -9.00000000      -9.00000000      -9.00000000      -9.00000000      -9.00000000      -9.00000000      -9.00000000      -9.00000000      -9.00000000      -9.00000000      -9.00000000      -9.00000000      -9.00000000      -9.00000000      -9.00000000      -9.00000000      -9.00000000      -9.00000000      -9.00000000
        -9.00000000      -9.00000000      -9.00000000      -9.00000000      -9.00000000      -9.00000000      -9.00000000      -9.00000000      -9.00000000      -9.00000000      -9.00000000      -9.00000000      -9.00000000      -9.00000000      -9.00000000      -9.00000000      -9.00000000      -9.00000000      -9.00000000      -9.00000000
        -9.00000000      -9.00000000      -9.00000000      -9.00000000      -9.00000000      -9.00000000      -9.00000000      -9.00000000      -9.00000000      -9.00000000      -9.00000000      -9.00000000      -9.00000000      -9.00000000      -9.00000000      -9.00000000      -9.00000000      -9.00000000      -9.00000000      -9.00000000
        -9.00000000      -9.00000000      -9.00000000      -9.00000000      -9.00000000      -9.00000000      -9.00000000      -9.00000000      -9.00000000      -9.00000000      -3.92999983      -6.46000004      -7.97000027       2.18999958    -137.50000000    -135.89999390    -134.50000000    -133.00000000    -131.50000000    -129.69999695
      -127.60000610      -9.00000000      -9.00000000      -9.00000000      -9.00000000      -9.00000000      -9.00000000      -9.00000000      -9.00000000      -9.00000000
        -9.00000000      -9.00000000      -9.00000000      -9.00000000      -9.00000000      -9.00000000      -9.00000000      -9.00000000      -9.00000000      -9.00000000      -9.00000000      -9.00000000      -9.00000000      -9.00000000      -9.00000000      -9.00000000      -9.00000000      -9.00000000      -9.00000000      -9.00000000
        -9.00000000      -9.00000000      -9.00000000      -9.00000000      -9.00000000      -9.00000000      -9.00000000      -9.00000000      -9.00000000      -9.00000000      -9.00000000      -9.00000000      -9.00000000      -9.00000000      -9.00000000      -9.00000000      -9.00000000      -9.00000000      -9.00000000      -9.00000000
        -9.00000000      -9.00000000      -9.00000000      -9.00000000      -9.00000000      -9.00000000      -9.00000000      -9.00000000      -9.00000000      -9.00000000      -9.00000000      -9.00000000      -9.00000000      -9.00000000      -9.00000000      -9.00000000      -9.00000000      -9.00000000      -9.00000000      -9.00000000
        -9.00000000      -9.00000000      -9.00000000      -9.00000000      -9.00000000      -9.00000000      -9.00000000      -9.00000000      -9.00000000      -9.00000000      -9.00000000      -9.00000000      -9.00000000      -9.00000000      -9.00000000      -9.00000000      -9.00000000      -9.00000000      -9.00000000      -9.00000000
        -9.00000000      -9.00000000      -9.00000000      -9.00000000      -9.00000000      -9.00000000      -9.00000000      -9.00000000      -9.00000000      -9.00000000      -9.00000000      -9.00000000      -9.00000000      -9.00000000      -9.00000000      -9.00000000      -9.00000000      -9.00000000      -9.00000000      -9.00000000
        -9.00000000      -9.00000000      -9.00000000      -9.00000000      -9.00000000      -9.00000000      -9.00000000      -9.00000000      -9.00000000      -9.00000000      -9.00000000      -9.00000000      -9.00000000      -9.00000000      -9.00000000      -9.00000000      -9.00000000      -9.00000000      -9.00000000      -9.00000000
        -9.00000000      -9.00000000      -9.00000000      -9.00000000      -9.00000000      -9.00000000      -9.00000000      -9.00000000      -9.00000000      -9.00000000      -2.73999977      -7.13000011      -8.89000034      -8.93000031       0.14000034    -130.39999390    -128.89999390    -127.39999390    -125.69999695    -123.59999847
      -120.69999695    -117.00000000    -113.30000305    -108.80000305    -104.90000153      -9.00000000      -9.00000000      -9.00000000     -99.40000153    -108.09999847
        -9.00000000      -9.00000000      -9.00000000      -9.00000000      -9.00000000      -9.00000000      -9.00000000      -9.00000000      -9.00000000      -9.00000000      -9.00000000      -9.00000000      -9.00000000      -9.00000000      -9.00000000      -9.00000000      -9.00000000      -9.00000000      -9.00000000      -9.00000000
        -9.00000000      -9.00000000      -9.00000000      -9.00000000      -9.00000000      -9.00000000      -9.00000000      -9.00000000      -9.00000000      -9.00000000      -9.00000000      -9.00000000      -9.00000000      -9.00000000      -9.00000000      -9.00000000      -9.00000000      -9.00000000      -9.00000000      -9.00000000
        -9.00000000      -9.00000000      -9.00000000      -9.00000000      -9.00000000      -9.00000000      -9.00000000      -9.00000000      -9.00000000      -9.00000000      -9.00000000      -9.00000000      -9.00000000      -9.00000000      -9.00000000      -9.00000000      -9.00000000      -9.00000000      -9.00000000      -9.00000000
        -9.00000000      -9.00000000      -9.00000000      -9.00000000      -9.00000000      -9.00000000      -9.00000000      -9.00000000      -9.00000000      -9.00000000      -9.00000000      -9.00000000      -9.00000000      -9.00000000      -9.00000000      -9.00000000      -9.00000000      -9.00000000      -9.00000000      -9.00000000
        -9.00000000      -9.00000000      -9.00000000      -9.00000000      -9.00000000      -9.00000000      -9.00000000      -9.00000000      -9.00000000      -9.00000000      -9.00000000      -9.00000000      -9.00000000      -9.00000000      -9.00000000      -9.00000000      -9.00000000      -9.00000000      -9.00000000      -9.00000000
        -9.00000000      -9.00000000      -9.00000000      -9.00000000      -9.00000000      -9.00000000      -9.00000000      -9.00000000      -9.00000000      -9.00000000      -9.00000000      -9.00000000      -9.00000000      -9.00000000      -9.00000000      -9.00000000      -9.00000000      -9.00000000      -9.00000000      -9.00000000
        -9.00000000      -9.00000000      -9.00000000      -9.00000000      -9.00000000      -9.00000000      -9.00000000      -9.00000000      -9.00000000      -9.00000000      -2.48999977      -6.75000000      -8.93000031      -8.93000031       2.60000038    -125.59999847    -124.09999847    -122.40000153    -120.40000153    -117.69999695
      -114.19999695    -110.50000000    -106.59999847    -101.90000153     -97.69999695      -9.00000000     -90.40000153     -89.90000153     -98.80000305    -107.80000305
        -9.00000000      -9.00000000      -9.00000000      -9.00000000      -9.00000000      -9.00000000      -9.00000000      -9.00000000      -9.00000000      -9.00000000      -9.00000000      -9.00000000      -9.00000000      -9.00000000      -9.00000000      -9.00000000      -9.00000000      -9.00000000      -9.00000000      -9.00000000
        -9.00000000      -9.00000000      -9.00000000      -9.00000000      -9.00000000      -9.00000000      -9.00000000      -9.00000000      -9.00000000      -9.00000000      -9.00000000      -9.00000000      -9.00000000      -9.00000000      -9.00000000      -9.00000000      -9.00000000      -9.00000000      -9.00000000      -9.00000000
        -9.00000000      -9.00000000      -9.00000000      -9.00000000      -9.00000000      -9.00000000      -9.00000000      -9.00000000      -9.00000000      -9.00000000      -9.00000000      -9.00000000      -9.00000000      -9.00000000      -9.00000000      -9.00000000      -9.00000000      -9.00000000      -9.00000000      -9.00000000
        -9.00000000      -9.00000000      -9.00000000      -9.00000000      -9.00000000      -9.00000000      -9.00000000      -9.00000000      -9.00000000      -9.00000000      -9.00000000      -9.00000000      -9.00000000      -9.00000000      -9.00000000      -9.00000000      -9.00000000      -9.00000000      -9.00000000      -9.00000000
        -9.00000000      -9.00000000      -9.00000000      -9.00000000      -9.00000000      -9.00000000      -9.00000000      -9.00000000      -9.00000000      -9.00000000      -9.00000000      -9.00000000      -9.00000000      -9.00000000      -9.00000000      -9.00000000      -9.00000000      -9.00000000      -9.00000000      -9.00000000
        -9.00000000      -9.00000000      -9.00000000      -9.00000000      -9.00000000      -9.00000000      -9.00000000      -9.00000000      -9.00000000      -9.00000000      -9.00000000      -9.00000000      -9.00000000      -9.00000000      -9.00000000      -9.00000000      -9.00000000      -9.00000000      -9.00000000      -9.00000000
        -9.00000000      -9.00000000      -9.00000000      -9.00000000      -9.00000000      -9.00000000      -9.00000000      -9.00000000      -9.00000000      -9.00000000      -4.07999992      -6.36999989      -8.93000031      -8.93000031      -8.93000031    -120.80000305    -119.19999695    -117.30000305    -114.69999695    -111.40000153
      -107.90000153    -104.19999695    -100.19999695     -95.30000305     -90.69999695     -86.00000000     -81.80000305     -89.30000305     -98.59999847    -107.90000153
        -9.00000000      -9.00000000      -9.00000000      -9.00000000      -9.00000000      -9.00000000      -9.00000000      -9.00000000      -9.00000000      -9.00000000      -9.00000000      -9.00000000      -9.00000000      -9.00000000      -9.00000000      -9.00000000      -9.00000000      -9.00000000      -9.00000000      -9.00000000
        -9.00000000      -9.00000000      -9.00000000      -9.00000000      -9.00000000      -9.00000000      -9.00000000      -9.00000000      -9.00000000      -9.00000000      -9.00000000      -9.00000000      -9.00000000      -9.00000000      -9.00000000      -9.00000000      -9.00000000      -9.00000000      -9.00000000      -9.00000000
        -9.00000000      -9.00000000      -9.00000000      -9.00000000      -9.00000000      -9.00000000      -9.00000000      -9.00000000      -9.00000000      -9.00000000      -9.00000000      -9.00000000      -9.00000000      -9.00000000      -9.00000000      -9.00000000      -9.00000000      -9.00000000      -9.00000000      -9.00000000
        -9.00000000      -9.00000000      -9.00000000      -9.00000000      -9.00000000      -9.00000000      -9.00000000      -9.00000000      -9.00000000      -9.00000000      -9.00000000      -9.00000000      -9.00000000      -9.00000000      -9.00000000      -9.00000000      -9.00000000      -9.00000000      -9.00000000      -9.00000000
        -9.00000000      -9.00000000      -9.00000000      -9.00000000      -9.00000000      -9.00000000      -9.00000000      -9.00000000      -9.00000000      -9.00000000      -9.00000000      -9.00000000      -9.00000000      -9.00000000      -9.00000000      -9.00000000      -9.00000000      -9.00000000      -9.00000000      -9.00000000
        -9.00000000      -9.00000000      -9.00000000      -9.00000000      -9.00000000      -9.00000000      -9.00000000      -9.00000000      -9.00000000      -9.00000000      -9.00000000      -9.00000000      -9.00000000      -9.00000000      -9.00000000      -9.00000000      -9.00000000      -9.00000000      -9.00000000      -9.00000000
        -9.00000000      -9.00000000      -9.00000000      -9.00000000      -9.00000000      -9.00000000      -9.00000000      -9.00000000      -9.00000000      -9.00000000      -6.09000015      -8.93000031      -8.93000031      -8.93000031      -8.93000031       5.52000046    -113.50000000    -111.09999847    -108.00000000    -104.80000305
      -101.30000305     -97.69999695     -93.69999695     -88.59999847     -83.80000305     -78.30000305     -79.40000153     -89.00000000     -98.80000305    -108.59999847
        -9.00000000      -9.00000000      -9.00000000      -9.00000000      -9.00000000      -9.00000000      -9.00000000      -9.00000000      -9.00000000      -9.00000000      -9.00000000      -9.00000000      -9.00000000      -9.00000000      -9.00000000      -9.00000000      -9.00000000      -9.00000000      -9.00000000      -9.00000000
        -9.00000000      -9.00000000      -9.00000000      -9.00000000      -9.00000000      -9.00000000      -9.00000000      -9.00000000      -9.00000000      -9.00000000      -9.00000000      -9.00000000      -9.00000000      -9.00000000      -9.00000000      -9.00000000      -9.00000000      -9.00000000      -9.00000000      -9.00000000
        -9.00000000      -9.00000000      -9.00000000      -9.00000000      -9.00000000      -9.00000000      -9.00000000      -9.00000000      -9.00000000      -9.00000000      -9.00000000      -9.00000000      -9.00000000      -9.00000000      -9.00000000      -9.00000000      -9.00000000      -9.00000000      -9.00000000      -9.00000000
        -9.00000000      -9.00000000      -9.00000000      -9.00000000      -9.00000000      -9.00000000      -9.00000000      -9.00000000      -9.00000000      -9.00000000      -9.00000000      -9.00000000      -9.00000000      -9.00000000      -9.00000000      -9.00000000      -9.00000000      -9.00000000      -9.00000000      -9.00000000
        -9.00000000      -9.00000000      -9.00000000      -9.00000000      -9.00000000      -9.00000000      -9.00000000      -9.00000000      -9.00000000      -9.00000000      -9.00000000      -9.00000000      -9.00000000      -9.00000000      -9.00000000      -9.00000000      -9.00000000      -9.00000000      -9.00000000      -9.00000000
        -9.00000000      -9.00000000      -9.00000000      -9.00000000      -9.00000000      -9.00000000      -9.00000000      -9.00000000      -9.00000000      -9.00000000      -9.00000000      -9.00000000      -9.00000000      -9.00000000      -9.00000000      -9.00000000      -9.00000000      -9.00000000      -9.00000000      -9.00000000
        -9.00000000      -9.00000000      -9.00000000      -9.00000000      -9.00000000      -9.00000000      -9.00000000      -9.00000000      -9.00000000      -9.00000000      -3.73999977      -8.93000031      -8.93000031      -8.93000031      -8.93000031      -2.05999994    -108.40000153    -105.59999847    -102.59999847     -99.59999847
       -96.30000305     -92.80000305     -89.09999847     -84.30000305     -79.59999847     -74.40000153     -79.19999695     -89.30000305     -99.50000000    -108.80000305
        -9.00000000      -9.00000000      -9.00000000      -9.00000000      -9.00000000      -9.00000000      -9.00000000      -9.00000000      -9.00000000      -9.00000000      -9.00000000      -9.00000000      -9.00000000      -9.00000000      -9.00000000      -9.00000000      -9.00000000      -9.00000000      -9.00000000      -9.00000000
        -9.00000000      -9.00000000      -9.00000000      -9.00000000      -9.00000000      -9.00000000      -9.00000000      -9.00000000      -9.00000000      -9.00000000      -9.00000000      -9.00000000      -9.00000000      -9.00000000      -9.00000000      -9.00000000      -9.00000000      -9.00000000      -9.00000000      -9.00000000
        -9.00000000      -9.00000000      -9.00000000      -9.00000000      -9.00000000      -9.00000000      -9.00000000      -9.00000000      -9.00000000      -9.00000000      -9.00000000      -9.00000000      -9.00000000      -9.00000000      -9.00000000      -9.00000000      -9.00000000      -9.00000000      -9.00000000      -9.00000000
        -9.00000000      -9.00000000      -9.00000000      -9.00000000      -9.00000000      -9.00000000      -9.00000000      -9.00000000      -9.00000000      -9.00000000      -9.00000000      -9.00000000      -9.00000000      -9.00000000      -9.00000000      -9.00000000      -9.00000000      -9.00000000      -9.00000000      -9.00000000
        -9.00000000      -9.00000000      -9.00000000      -9.00000000      -9.00000000      -9.00000000      -9.00000000      -9.00000000      -9.00000000      -9.00000000      -9.00000000      -9.00000000      -9.00000000      -9.00000000      -9.00000000      -9.00000000      -9.00000000      -9.00000000      -9.00000000      -9.00000000
        -9.00000000      -9.00000000      -9.00000000      -9.00000000      -9.00000000      -9.00000000      -9.00000000      -9.00000000      -9.00000000      -9.00000000      -9.00000000      -9.00000000      -9.00000000      -9.00000000      -9.00000000      -9.00000000      -9.00000000      -9.00000000      -9.00000000      -9.00000000
        -9.00000000      -9.00000000      -9.00000000      -9.00000000      -9.00000000      -9.00000000      -9.00000000      -9.00000000      -9.00000000      -9.00000000      -2.28999996      -8.09000015      -8.93000031      -8.93000031      -8.93000031      -8.65999985      32.04000092      20.61000061      12.12000084     -95.00000000
       -92.00000000     -88.80000305     -85.40000153     -81.00000000     -77.00000000     -72.90000153     -79.50000000     -90.09999847    -100.90000153    -115.59999847
        -9.00000000      -9.00000000      -9.00000000      -9.00000000      -9.00000000      -9.00000000      -9.00000000      -9.00000000      -9.00000000      -9.00000000      -9.00000000      -9.00000000      -9.00000000      -9.00000000      -9.00000000      -9.00000000      -9.00000000      -9.00000000      -9.00000000      -9.00000000
        -9.00000000      -9.00000000      -9.00000000      -9.00000000      -9.00000000      -9.00000000      -9.00000000      -9.00000000      -9.00000000      -9.00000000      -9.00000000      -9.00000000      -9.00000000      -9.00000000      -9.00000000      -9.00000000      -9.00000000      -9.00000000      -9.00000000      -9.00000000
        -9.00000000      -9.00000000      -9.00000000      -9.00000000      -9.00000000      -9.00000000      -9.00000000      -9.00000000      -9.00000000      -9.00000000      -9.00000000      -9.00000000      -9.00000000      -9.00000000      -9.00000000      -9.00000000      -9.00000000      -9.00000000      -9.00000000      -9.00000000
        -9.00000000      -9.00000000      -9.00000000      -9.00000000      -9.00000000      -9.00000000      -9.00000000      -9.00000000      -9.00000000      -9.00000000      -9.00000000      -9.00000000      -9.00000000      -9.00000000      -9.00000000      -9.00000000      -9.00000000      -9.00000000      -9.00000000      -9.00000000