BEGIN griddata
  strt
    INTERNAL  FACTOR  1.0
       -36.89500427     -36.89500427     -36.89500427     -36.89500427     -36.89500427     -36.89500427     -36.89500427     -36.89500427     -36.89500427     -36.89500427     -36.89500427     -36.89500427     -36.89500427     -36.89500427     -36.89500427     -36.89500427     -36.89500427     -36.89500427     -36.89500427     -36.89500427
       -36.89500427     -36.89500427     -36.89500427     -36.89500427     -36.89500427     -36.89500427     -36.89500427     -36.89500427     -36.89500427     -36.89500427     -36.89500427     -36.89500427     -36.89500427     -36.89500427     -36.89500427     -36.89500427     -36.89500427     -36.89500427     -36.89500427     -36.89500427
       -36.89500427     -36.89500427     -36.89500427     -36.89500427     -36.89500427     -36.89500427     -36.89500427     -36.89500427     -36.89500427     -36.89500427     -36.89500427     -36.89500427     -36.89500427     -36.89500427     -36.89500427     -36.89500427     -36.89500427     -36.89500427     -36.89500427     -36.89500427
       -36.89500427     -36.89500427     -36.89500427     -36.89500427     -36.89500427     -36.89500427     -36.89500427     -36.89500427     -36.89500427     -36.89500427     -36.89500427     -36.89500427     -36.89500427     -36.89500427     -36.89500427     -36.89500427     -36.89500427     -36.89500427     -36.89500427     -36.89500427
       -36.89500427     -36.89500427      -5.96000004      -8.52999973     -36.89500427      -9.58999920      -8.77999973      -9.39999962     -36.89500427     -36.89500427     -36.89500427     -36.89500427     -36.89500427     -36.89500427    -174.47329712    -179.87078857    -183.13128662    -187.53839111    -193.15519714    -199.76139832
       -36.89500427     -36.89500427     -36.89500427     -36.89500427     -36.89500427     -36.89500427     -36.89500427     -36.89500427     -36.89500427     -36.89500427     -36.89500427     -36.89500427     -36.89500427     -36.89500427     -36.89500427     -36.89500427     -36.89500427     -36.89500427     -36.89500427     -36.89500427
       -36.89500427     -36.89500427     -36.89500427     -36.89500427     -36.89500427     -36.89500427     -36.89500427     -36.89500427     -36.89500427     -36.89500427     -36.89500427     -36.89500427     -36.89500427     -36.89500427     -36.89500427     -36.89500427     -36.89500427     -36.89500427     -36.89500427     -36.89500427
       -36.89500427     -36.89500427     -36.89500427     -36.89500427     -36.89500427     -36.89500427     -36.89500427     -36.89500427     -36.89500427     -36.89500427     -36.89500427     -36.89500427     -36.89500427     -36.89500427     -36.89500427     -36.89500427     -36.89500427     -36.89500427     -36.89500427     -36.89500427
       -36.89500427     -36.89500427     -36.89500427     -36.89500427     -36.89500427     -36.89500427     -36.89500427     -36.89500427     -36.89500427     -36.89500427     -36.89500427     -36.89500427     -36.89500427     -36.89500427     -36.89500427     -36.89500427     -36.89500427     -36.89500427     -36.89500427     -36.89500427
       -36.89500427     -36.89500427      -6.40000010      -8.94999981      -9.50000000      -8.73999977      -7.83000040      -9.68999958     -36.89500427     -36.89500427     -36.89500427     -36.89500427     -36.89500427     -36.89500427    -176.29229736    -181.30969238    -184.76579285    -188.97149658    -194.37269592    -200.89219666
       -36.89500427     -36.89500427     -36.89500427     -36.89500427     -36.89500427     -36.89500427     -36.89500427     -36.89500427     -36.89500427     -36.89500427     -36.89500427     -36.89500427     -36.89500427     -36.89500427     -36.89500427     -36.89500427     -36.89500427     -36.89500427     -36.89500427     -36.89500427
       -36.89500427     -36.89500427     -36.89500427     -36.89500427     -36.89500427     -36.89500427     -36.89500427     -36.89500427     -36.89500427     -36.89500427     -36.89500427     -36.89500427     -36.89500427     -36.89500427     -36.89500427     -36.89500427     -36.89500427     -36.89500427     -36.89500427     -36.89500427
       -36.89500427     -36.89500427     -36.89500427     -36.89500427     -36.89500427     -36.89500427     -36.89500427     -36.89500427     -36.89500427     -36.89500427     -36.89500427     -36.89500427     -36.89500427     -36.89500427     -36.89500427     -36.89500427     -36.89500427     -36.89500427     -36.89500427     -36.89500427
       -36.89500427     -36.89500427     -36.89500427     -36.89500427     -36.89500427     -36.89500427     -36.89500427     -36.89500427     -36.89500427     -36.89500427     -36.89500427     -36.89500427     -36.89500427     -36.89500427     -36.89500427     -36.89500427     -36.89500427     -36.89500427     -36.89500427     -36.89500427
       -36.89500427     -36.89500427      -7.08000040      -6.32000017    -101.92940521    -147.12049866    -139.17430115    -138.49389648     -36.89500427     -36.89500427     -36.89500427     -36.89500427     -36.89500427     -36.89500427    -178.73278809    -183.63648987    -187.28450012    -191.30769348    -196.42369080    -202.72290039
       -36.89500427     -36.89500427     -36.89500427     -36.89500427     -36.89500427     -36.89500427     -36.89500427     -36.89500427     -36.89500427     -36.89500427     -36.89500427     -36.89500427     -36.89500427     -36.89500427     -36.89500427     -36.89500427     -36.89500427     -36.89500427     -36.89500427     -36.89500427
       -36.89500427     -36.89500427     -36.89500427     -36.89500427     -36.89500427     -36.89500427     -36.89500427     -36.89500427     -36.89500427     -36.89500427     -36.89500427     -36.89500427     -36.89500427     -36.89500427     -36.89500427     -36.89500427     -36.89500427     -36.89500427     -36.89500427     -36.89500427
       -36.89500427     -36.89500427     -36.89500427     -36.89500427     -36.89500427     -36.89500427     -36.89500427     -36.89500427     -36.89500427     -36.89500427     -36.89500427     -36.89500427     -36.89500427     -36.89500427     -36.89500427     -36.89500427     -36.89500427     -36.89500427     -36.89500427     -36.89500427
       -36.89500427     -36.89500427     -36.89500427     -36.89500427     -36.89500427     -36.89500427     -36.89500427     -36.89500427     -36.89500427     -36.89500427     -36.89500427     -36.89500427     -36.89500427     -36.89500427     -36.89500427     -36.89500427     -36.89500427     -36.89500427     -36.89500427     -36.89500427
       -36.89500427     -36.89500427      -8.94999981      -9.82999992    -140.95419312    -134.23748779    -133.76379395    -137.47999573    -143.60159302    -150.19549561     -36.89500427     -36.89500427     -36.89500427    -175.69529724    -181.90689087    -186.98489380    -190.92369080    -194.94288635    -199.96139526    -205.69799805
       -36.89500427     -36.89500427     -36.89500427     -36.89500427     -36.89500427     -36.89500427     -36.89500427     -36.89500427     -36.89500427     -36.89500427     -36.89500427     -36.89500427     -36.89500427     -36.89500427     -36.89500427     -36.89500427     -36.89500427     -36.89500427     -36.89500427     -36.89500427
       -36.89500427     -36.89500427     -36.89500427     -36.89500427     -36.89500427     -36.89500427     -36.89500427     -36.89500427     -36.89500427     -36.89500427     -36.89500427     -36.89500427     -36.89500427     -36.89500427     -36.89500427     -36.89500427     -36.89500427     -36.89500427     -36.89500427     -36.89500427
       -36.89500427     -36.89500427     -36.89500427     -36.89500427     -36.89500427     -36.89500427     -36.89500427     -36.89500427     -36.89500427     -36.89500427     -36.89500427     -36.89500427     -36.89500427     -36.89500427     -36.89500427     -36.89500427     -36.89500427     -36.89500427     -36.89500427     -36.89500427
       -36.89500427     -36.89500427     -36.89500427     -36.89500427     -36.89500427     -36.89500427     -36.89500427     -36.89500427     -36.89500427     -36.89500427     -36.89500427     -36.89500427     -36.89500427     -36.89500427     -36.89500427     -36.89500427     -36.89500427     -36.89500427     -36.89500427     -36.89500427
       -36.89500427     -36.89500427      -8.59999943      -9.82999992    -129.33828735    -128.88639832    -133.05490112    -138.54139709    -145.20069885    -151.92720032    -158.70478821    -165.50988770    -171.63369751    -178.43190002    -185.13949585    -190.85159302    -196.46679688    -199.86019897    -204.63569641    -209.91429138
       -36.89500427     -36.89500427     -36.89500427     -36.89500427     -36.89500427     -36.89500427     -36.89500427     -36.89500427     -36.89500427     -36.89500427     -36.89500427     -36.89500427     -36.89500427     -36.89500427     -36.89500427     -36.89500427     -36.89500427     -36.89500427     -36.89500427     -36.89500427
       -36.89500427     -36.89500427     -36.89500427     -36.89500427     -36.89500427     -36.89500427     -36.89500427     -36.89500427     -36.89500427     -36.89500427     -36.89500427     -36.89500427     -36.89500427     -36.89500427     -36.89500427     -36.89500427     -36.89500427     -36.89500427     -36.89500427     -36.89500427
       -36.89500427     -36.89500427     -36.89500427     -36.89500427     -36.89500427     -36.89500427     -36.89500427     -36.89500427     -36.89500427     -36.89500427     -36.89500427     -36.89500427     -36.89500427     -36.89500427     -36.89500427     -36.89500427     -36.89500427     -36.89500427     -36.89500427     -36.89500427
       -36.89500427     -36.89500427     -36.89500427     -36.89500427     -36.89500427     -36.89500427     -36.89500427     -36.89500427     -36.89500427     -36.89500427     -36.89500427     -36.89500427     -36.89500427     -36.89500427     -36.89500427     -36.89500427     -36.89500427     -36.89500427     -36.89500427     -36.89500427
       -36.89500427     -36.89500427      -9.82999992      -9.82999992      -9.82999992    -128.04618835    -134.09249878    -140.11199951    -146.89279175    -153.76669312    -160.72679138    -167.76609802    -174.17250061    -181.41510010    -188.63578796    -195.14059448    -203.00619507    -207.11248779    -211.98509216    -218.50119019
       -36.89500427     -36.89500427     -36.89500427     -36.89500427     -36.89500427     -36.89500427     -36.89500427     -36.89500427     -36.89500427     -36.89500427     -36.89500427     -36.89500427     -36.89500427     -36.89500427     -36.89500427     -36.89500427     -36.89500427     -36.89500427     -36.89500427     -36.89500427
       -36.89500427     -36.89500427     -36.89500427     -36.89500427     -36.89500427     -36.89500427     -36.89500427     -36.89500427     -36.89500427     -36.89500427     -36.89500427     -36.89500427     -36.89500427     -36.89500427     -36.89500427     -36.89500427     -36.89500427     -36.89500427     -36.89500427     -36.89500427
       -36.89500427     -36.89500427     -36.89500427     -36.89500427     -36.89500427     -36.89500427     -36.89500427     -36.89500427     -36.89500427     -36.89500427     -36.89500427     -36.89500427     -36.89500427     -36.89500427     -36.89500427     -36.89500427     -36.89500427     -36.89500427     -36.89500427     -36.89500427
       -36.89500427     -36.89500427     -36.89500427     -36.89500427     -36.89500427     -36.89500427     -36.89500427     -36.89500427     -36.89500427     -36.89500427     -36.89500427     -36.89500427     -36.89500427     -36.89500427     -36.89500427     -36.89500427     -36.89500427     -36.89500427     -36.89500427     -36.89500427
       -36.89500427     -36.89500427     -36.89500427      -9.82999992      -9.82999992       0.10000000    -135.62419128    -141.74389648    -148.65869141    -155.69709778    -162.86419678    -170.17279053    -176.90908813    -184.60169983    -192.38839722    -199.89219666    -209.92189026    -215.75869751    -221.08819580    -228.44898987
       -36.89500427     -36.89500427     -36.89500427     -36.89500427     -36.89500427     -36.89500427     -36.89500427     -36.89500427     -36.89500427     -36.89500427     -36.89500427     -36.89500427     -36.89500427     -36.89500427     -36.89500427     -36.89500427     -36.89500427     -36.89500427     -36.89500427     -36.89500427
       -36.89500427     -36.89500427     -36.89500427     -36.89500427     -36.89500427     -36.89500427     -36.89500427     -36.89500427     -36.89500427     -36.89500427     -36.89500427     -36.89500427     -36.89500427     -36.89500427     -36.89500427     -36.89500427     -36.89500427     -36.89500427     -36.89500427     -36.89500427
       -36.89500427     -36.89500427     -36.89500427     -36.89500427     -36.89500427     -36.89500427     -36.89500427     -36.89500427     -36.89500427     -36.89500427     -36.89500427     -36.89500427     -36.89500427     -36.89500427     -36.89500427     -36.89500427     -36.89500427     -36.89500427     -36.89500427     -36.89500427
       -36.89500427     -36.89500427     -36.89500427     -36.89500427     -36.89500427     -36.89500427     -36.89500427     -36.89500427     -36.89500427     -36.89500427     -36.89500427     -36.89500427     -36.89500427     -36.89500427     -36.89500427     -36.89500427     -36.89500427     -36.89500427     -36.89500427     -36.89500427
       -36.89500427     -36.89500427      -9.82999992      -9.82999992      -9.82999992       0.10000000       0.10000000      -1.87999952    -150.47940063    -157.70179749    -165.10299683    -172.72299194    -179.83349609    -187.98139954    -196.43719482    -205.19569397    -217.24620056    -224.48229980    -230.70098877    -239.06739807
       -36.89500427     -36.89500427     -36.89500427     -36.89500427     -36.89500427     -36.89500427     -36.89500427     -36.89500427     -36.89500427     -36.89500427     -36.89500427     -36.89500427     -36.89500427     -36.89500427     -36.89500427     -36.89500427     -36.89500427     -36.89500427     -36.89500427     -36.89500427
       -36.89500427     -36.89500427     -36.89500427     -36.89500427     -36.89500427     -36.89500427     -36.89500427     -36.89500427     -36.89500427     -36.89500427     -36.89500427     -36.89500427     -36.89500427     -36.89500427     -36.89500427     -36.89500427     -36.89500427     -36.89500427     -36.89500427     -36.89500427
       -36.89500427     -36.89500427     -36.89500427     -36.89500427     -36.89500427     -36.89500427     -36.89500427     -36.89500427     -36.89500427     -36.89500427     -36.89500427     -36.89500427     -36.89500427     -36.89500427     -36.89500427     -36.89500427     -36.89500427     -36.89500427     -36.89500427     -36.89500427
       -36.89500427     -36.89500427     -36.89500427     -36.89500427     -36.89500427     -36.89500427     -36.89500427     -36.89500427     -36.89500427     -36.89500427     -36.89500427     -36.89500427     -36.89500427     -36.89500427     -36.89500427     -36.89500427     -36.89500427     -36.89500427     -36.89500427     -36.89500427
       -36.89500427     -36.89500427      -9.80999947      -9.82999992      -9.82999992       0.10000000       0.10000000       0.10000000      -9.82999992    -159.76098633    -167.42929077    -176.22819519    -183.73999023    -192.45199585    -201.81709290    -213.07308960    -226.64158630    -233.91668701    -241.18229675    -248.94689941
       -36.89500427     -36.89500427     -36.89500427     -36.89500427     -36.89500427     -36.89500427     -36.89500427     -36.89500427     -36.89500427     -36.89500427     -36.89500427     -36.89500427     -36.89500427     -36.89500427     -36.89500427     -36.89500427     -36.89500427     -36.89500427     -36.89500427     -36.89500427
       -36.89500427     -36.89500427     -36.89500427     -36.89500427     -36.89500427     -36.89500427     -36.89500427     -36.89500427     -36.89500427     -36.89500427     -36.89500427     -36.89500427     -36.89500427     -36.89500427     -36.89500427     -36.89500427     -36.89500427     -36.89500427     -36.89500427     -36.89500427
       -36.89500427     -36.89500427     -36.89500427     -36.89500427     -36.89500427     -36.89500427     -36.89500427     -36.89500427     -36.89500427     -36.89500427     -36.89500427     -36.89500427     -36.89500427     -36.89500427     -36.89500427     -36.89500427     -36.89500427     -36.89500427     -36.89500427     -36.89500427
       -36.89500427       0.10000000       0.10000000       0.10000000       0.10000000       0.10000000       0.10000000       0.10000000       0.10000000       0.10000000       0.10000000       0.10000000       0.10000000       0.10000000       0.10000000       0.10000000       0.10000000       0.10000000       0.10000000       0.10000000
        -2.61999989      -7.55999994      -5.53999996      -9.82999992      -3.23000002       0.10000000      -6.44000006      -1.46999967    -154.95039368    -162.63659668    -170.64709473    -179.04309082    -186.95829773    -196.31549072    -206.77198792    -219.81649780    -235.52510071    -243.43029785    -250.93809509    -258.76428223
       -36.89500427     -36.89500427     -36.89500427     -36.89500427     -36.89500427     -36.89500427     -36.89500427     -36.89500427     -36.89500427     -36.89500427     -36.89500427     -36.89500427     -36.89500427     -36.89500427     -36.89500427     -36.89500427     -36.89500427     -36.89500427     -36.89500427     -36.89500427
       -36.89500427     -36.89500427     -36.89500427     -36.89500427     -36.89500427     -36.89500427     -36.89500427     -36.89500427     -36.89500427     -36.89500427     -36.89500427     -36.89500427     -36.89500427     -36.89500427     -36.89500427     -36.89500427     -36.89500427     -36.89500427     -36.89500427     -36.89500427
       -36.89500427     -36.89500427     -36.89500427     -36.89500427     -36.89500427     -36.89500427     -36.89500427     -36.89500427     -36.89500427     -36.89500427     -36.89500427     -36.89500427     -36.89500427     -36.89500427     -36.89500427     -36.89500427     -36.89500427     -36.89500427     -36.89500427     -36.89500427
       -36.89500427       0.10000000       0.10000000       0.10000000       0.10000000       0.10000000       0.10000000       0.10000000       0.10000000       0.10000000       0.10000000       0.10000000       0.10000000       0.10000000       0.10000000       0.10000000       0.10000000       0.10000000       0.10000000       0.10000000
         0.10000000      -9.82999992    -115.19440460    -121.79790497    -128.45298767    -135.40019226    -142.55268860    -149.18778992    -156.81559753    -164.76739502    -173.11309814    -181.89439392    -190.28169250    -200.42469788    -212.28729248    -227.02619934    -245.35139465    -252.88719177    -260.53170776    -268.33688354
       -36.89500427     -36.89500427     -36.89500427     -36.89500427     -36.89500427     -36.89500427     -36.89500427     -36.89500427     -36.89500427     -36.89500427     -36.89500427     -36.89500427     -36.89500427     -36.89500427     -36.89500427     -36.89500427     -36.89500427     -36.89500427     -36.89500427     -36.89500427
       -36.89500427     -36.89500427     -36.89500427     -36.89500427     -36.89500427     -36.89500427     -36.89500427     -36.89500427     -36.89500427     -36.89500427     -36.89500427     -36.89500427     -36.89500427     -36.89500427     -36.89500427     -36.89500427     -36.89500427     -36.89500427     -36.89500427     -36.89500427
       -36.89500427     -36.89500427     -36.89500427     -36.89500427     -36.89500427     -36.89500427     -36.89500427     -36.89500427     -36.89500427     -36.89500427     -36.89500427     -36.89500427     -36.89500427     -36.89500427     -36.89500427     -36.89500427     -36.89500427     -36.89500427     -36.89500427     -36.89500427
       -36.89500427       0.10000000       0.10000000       0.10000000       0.10000000       0.10000000       0.10000000       0.10000000       0.10000000       0.10000000       0.10000000       0.10000000       0.10000000       0.10000000       0.10000000       0.10000000       0.10000000       0.10000000       0.10000000      -0.92000043
         0.10000000      -9.82999992    -116.27320099    -122.93099976    -129.66938782    -136.71328735    -143.99339294    -150.77929688    -158.62609863    -166.86138916    -175.53219604    -184.74868774    -193.69439697    -204.81379700    -218.15519714    -234.85829163    -255.25749207    -262.16519165    -269.90789795    -277.61450195
       -36.89500427     -36.89500427     -36.89500427     -36.89500427     -36.89500427     -36.89500427     -36.89500427     -36.89500427     -36.89500427     -36.89500427     -36.89500427     -36.89500427     -36.89500427     -36.89500427     -36.89500427     -36.89500427     -36.89500427     -36.89500427     -36.89500427     -36.89500427
       -36.89500427     -36.89500427     -36.89500427     -36.89500427     -36.89500427     -36.89500427     -36.89500427     -36.89500427     -36.89500427     -36.89500427     -36.89500427     -36.89500427     -36.89500427     -36.89500427     -36.89500427     -36.89500427     -36.89500427     -36.89500427     -36.89500427     -36.89500427
       -36.89500427     -36.89500427     -36.89500427     -36.89500427     -36.89500427     -36.89500427     -36.89500427     -36.89500427     -36.89500427     -36.89500427     -36.89500427     -36.89500427     -36.89500427     -36.89500427     -36.89500427     -36.89500427     -36.89500427     -36.89500427     -36.89500427     -36.89500427
       -36.89500427       0.10000000       0.10000000       0.10000000       0.10000000       0.10000000       0.10000000       0.10000000       0.10000000       0.10000000       0.10000000       0.10000000       0.10000000       0.10000000       0.10000000       0.10000000       0.10000000       0.10000000       0.10000000       0.10000000
        -7.74000025      -8.82999992    -117.23229980    -123.93790436    -130.75779724    -137.89529419    -145.30499268    -152.24699402    -160.32229614    -168.82418823    -177.84590149    -187.56140137    -197.17408752    -209.47090149    -224.21279907    -243.09829712    -264.02838135    -271.22918701    -279.08679199    -286.68960571
       -36.89500427     -36.89500427     -36.89500427     -36.89500427     -36.89500427     -36.89500427     -36.89500427     -36.89500427     -36.89500427     -36.89500427     -36.89500427     -36.89500427     -36.89500427     -36.89500427     -36.89500427     -36.89500427     -36.89500427     -36.89500427     -36.89500427     -36.89500427
       -36.89500427     -36.89500427     -36.89500427     -36.89500427     -36.89500427     -36.89500427     -36.89500427     -36.89500427     -36.89500427     -36.89500427     -36.89500427     -36.89500427     -36.89500427     -36.89500427     -36.89500427     -36.89500427     -36.89500427     -36.89500427     -36.89500427     -36.89500427
       -36.89500427     -36.89500427     -36.89500427     -36.89500427     -36.89500427     -36.89500427     -36.89500427     -36.89500427     -36.89500427     -36.89500427     -36.89500427     -36.89500427     -36.89500427     -36.89500427     -36.89500427     -36.89500427     -36.89500427     -36.89500427     -36.89500427     -36.89500427
       -36.89500427       0.10000000       0.10000000       0.10000000       0.10000000       0.10000000       0.10000000       0.10000000       0.10000000       0.10000000       0.10000000       0.10000000       0.10000000       0.10000000       0.10000000       0.10000000       0.10000000       0.10000000       0.10000000       0.10000000
        -4.11999989      -6.58000040    -118.03310394    -124.77400208    -131.66819763    -138.89158630    -146.42529297    -153.51939392    -161.79479980    -170.56838989    -179.97929382    -190.27288818    -200.69529724    -214.11389160    -230.46488953    -251.24319458    -272.49960327    -280.07629395    -288.11868286    -295.71188354
       -36.89500427     -36.89500427     -36.89500427     -36.89500427     -36.89500427     -36.89500427     -36.89500427     -36.89500427     -36.89500427     -36.89500427     -36.89500427     -36.89500427     -36.89500427     -36.89500427     -36.89500427     -36.89500427     -36.89500427     -36.89500427     -36.89500427     -36.89500427
       -36.89500427     -36.89500427     -36.89500427     -36.89500427     -36.89500427     -36.89500427     -36.89500427     -36.89500427     -36.89500427     -36.89500427     -36.89500427     -36.89500427     -36.89500427     -36.89500427     -36.89500427     -36.89500427     -36.89500427     -36.89500427     -36.89500427     -36.89500427
       -36.89500427     -36.89500427     -36.89500427     -36.89500427     -36.89500427     -36.89500427     -36.89500427     -36.89500427     -36.89500427     -36.89500427     -36.89500427     -36.89500427     -36.89500427     -36.89500427     -36.89500427     -36.89500427     -36.89500427     -36.89500427     -36.89500427     -36.89500427
       -36.89500427       0.10000000       0.10000000       0.10000000       0.10000000       0.10000000       0.10000000       0.10000000       0.10000000       0.10000000       0.10000000       0.10000000       0.10000000       0.10000000       0.10000000       0.10000000       0.10000000       0.10000000       0.10000000       0.10000000
        -9.02999973    -112.72900391    -118.63269806    -125.38819885    -132.38769531    -139.63018799    -147.26249695    -154.47059631    -162.93460083    -171.99198914    -181.83369446    -192.80828857    -204.04049683    -218.77659607    -237.81298828    -259.37329102    -281.37719727    -288.66088867    -297.02078247    -304.79110718
       -36.89500427     -36.89500427     -36.89500427     -36.89500427     -36.89500427     -36.89500427     -36.89500427     -36.89500427     -36.89500427     -36.89500427     -36.89500427     -36.89500427     -36.89500427     -36.89500427     -36.89500427     -36.89500427     -36.89500427     -36.89500427     -36.89500427     -36.89500427
       -36.89500427     -36.89500427     -36.89500427     -36.89500427     -36.89500427     -36.89500427     -36.89500427     -36.89500427     -36.89500427     -36.89500427     -36.89500427     -36.89500427     -36.89500427     -36.89500427     -36.89500427     -36.89500427     -36.89500427     -36.89500427     -36.89500427     -36.89500427
       -36.89500427     -36.89500427     -36.89500427     -36.89500427     -36.89500427     -36.89500427     -36.89500427     -36.89500427     -36.89500427     -36.89500427     -36.89500427     -36.89500427     -36.89500427     -36.89500427     -36.89500427     -36.89500427     -36.89500427     -36.89500427     -36.89500427     -36.89500427
       -36.89500427       0.10000000       0.10000000       0.10000000       0.10000000       0.10000000       0.10000000       0.10000000       0.10000000       0.10000000       0.10000000       0.10000000       0.10000000       0.10000000       0.10000000       0.10000000       0.10000000       0.10000000       0.10000000      -9.19999981
      -106.73090363    -113.09740448    -118.98220062    -125.72290039    -132.71949768    -140.00849915    -147.68029785    -154.97079468    -163.60369873    -172.95349121    -183.28698730    -194.98719788    -207.28250122    -224.43708801    -245.53439331    -267.20770264    -288.98980713    -296.87390137    -305.71810913    -313.90808105
       -36.89500427     -36.89500427     -36.89500427     -36.89500427     -36.89500427     -36.89500427     -36.89500427     -36.89500427     -36.89500427     -36.89500427     -36.89500427     -36.89500427     -36.89500427     -36.89500427     -36.89500427     -36.89500427     -36.89500427     -36.89500427     -36.89500427     -36.89500427
       -36.89500427     -36.89500427     -36.89500427     -36.89500427     -36.89500427     -36.89500427     -36.89500427     -36.89500427     -36.89500427     -36.89500427     -36.89500427     -36.89500427     -36.89500427     -36.89500427     -36.89500427     -36.89500427     -36.89500427     -36.89500427     -36.89500427     -36.89500427
       -36.89500427     -36.89500427     -36.89500427     -36.89500427     -36.89500427     -36.89500427     -36.89500427     -36.89500427     -36.89500427     -36.89500427     -36.89500427     -36.89500427     -36.89500427     -36.89500427     -36.89500427     -36.89500427     -36.89500427     -36.89500427     -36.89500427     -36.89500427
       -36.89500427       0.10000000       0.10000000       0.10000000       0.10000000       0.10000000       0.10000000       0.10000000       0.10000000       0.10000000       0.10000000       0.10000000       0.10000000       0.10000000       0.10000000       0.10000000       0.10000000      -9.59999943     -94.67438507    -100.70819855
      -106.87509918    -113.19380188    -119.02960205    -125.70840454    -132.63339233    -139.90609741    -147.55029297    -154.87039185    -163.64009094    -173.30299377    -184.18019104    -196.94789124    -211.33169556    -231.74639893    -252.96809387    -274.41308594    -295.90719604    -304.52438354    -314.01068115    -322.86148071
       -36.89500427     -36.89500427     -36.89500427     -36.89500427     -36.89500427     -36.89500427     -36.89500427     -36.89500427     -36.89500427     -36.89500427     -36.89500427     -36.89500427     -36.89500427     -36.89500427     -36.89500427     -36.89500427     -36.89500427     -36.89500427     -36.89500427     -36.89500427
       -36.89500427     -36.89500427     -36.89500427     -36.89500427     -36.89500427     -36.89500427     -36.89500427     -36.89500427     -36.89500427     -36.89500427     -36.89500427     -36.89500427     -36.89500427     -36.89500427     -36.89500427     -36.89500427     -36.89500427     -36.89500427     -36.89500427     -36.89500427