BEGIN griddata
  strt
    INTERNAL  FACTOR  1.0
       -11.40000000     -12.90000000     -14.40000000     -15.90000000     -17.40000000     -18.90000000     -20.40000000     -21.90000000     -23.40000000     -24.90000000     -26.40000000     -27.90000000     -29.40000000     -30.90000000     -32.40000000     -33.90000000     -35.40000000     -36.90000000     -38.40000000     -39.90000000
       -41.40000000     -42.90000000     -44.40000000     -45.90000000     -47.40000000     -48.90000000     -50.40000000     -51.90000000     -53.40000000     -54.90000000     -56.40000000     -57.90000000     -59.40000000     -60.90000000     -62.40000000     -63.90000000     -65.40000000     -66.90000000     -68.40000000     -69.90000000
       -71.40000000     -72.90000000     -74.40000000     -75.90000000     -77.40000000     -78.90000000     -80.40000000     -81.90000000     -83.40000000     -84.90000000     -86.40000000     -87.90000000     -89.40000000     -90.90000000     -92.40000000     -93.90000000     -95.40000000     -96.90000000     -98.40000000     -99.90000000
      -101.40000000    -102.90000000    -104.40000000    -105.90000000    -107.40000000    -108.90000000    -110.40000000    -111.90000000    -113.40000000    -114.90000000    -116.40000000    -117.90000000    -119.40000000    -120.90000000    -122.40000000    -123.90000000    -125.40000000    -126.90000000    -128.40000000    -129.90000000
      -131.40000000    -132.90000000    -130.45999994    -134.53000000    -137.90000000    -138.59000000    -139.28000000    -141.40000000    -143.40000000    -144.90000000    -146.40000000    -147.90000000    -149.40000000    -150.90000000    -152.40000000    -153.90000000    -155.40000000    -156.90000000    -158.40000000    -159.90000000
       -11.40000000     -12.90000000     -14.40000000     -15.90000000     -17.40000000     -18.90000000     -20.40000000     -21.90000000     -23.40000000     -24.90000000     -26.40000000     -27.90000000     -29.40000000     -30.90000000     -32.40000000     -33.90000000     -35.40000000     -36.90000000     -38.40000000     -39.90000000
       -41.40000000     -42.90000000     -44.40000000     -45.90000000     -47.40000000     -48.90000000     -50.40000000     -51.90000000     -53.40000000     -54.90000000     -56.40000000     -57.90000000     -59.40000000     -60.90000000     -62.40000000     -63.90000000     -65.40000000     -66.90000000     -68.40000000     -69.90000000
       -71.40000000     -72.90000000     -74.40000000     -75.90000000     -77.40000000     -78.90000000     -80.40000000     -81.90000000     -83.40000000     -84.90000000     -86.40000000     -87.90000000     -89.40000000     -90.90000000     -92.40000000     -93.90000000     -95.40000000     -96.90000000     -98.40000000     -99.90000000
      -101.40000000    -102.90000000    -104.40000000    -105.90000000    -107.40000000    -108.90000000    -110.40000000    -111.90000000    -113.40000000    -114.90000000    -116.40000000    -117.90000000    -119.40000000    -120.90000000    -122.40000000    -123.90000000    -125.40000000    -126.90000000    -128.40000000    -129.90000000
      -131.40000000    -132.90000000    -130.90000000    -134.95000001    -136.99999999    -137.74000003    -138.33000007    -141.69000001    -143.40000000    -144.90000000    -146.40000000    -147.90000000    -149.40000000    -150.90000000    -152.40000000    -153.90000000    -155.40000000    -156.90000000    -158.40000000    -159.90000000
       -11.40000000     -12.90000000     -14.40000000     -15.90000000     -17.40000000     -18.90000000     -20.40000000     -21.90000000     -23.40000000     -24.90000000     -26.40000000     -27.90000000     -29.40000000     -30.90000000     -32.40000000     -33.90000000     -35.40000000     -36.90000000     -38.40000000     -39.90000000
       -41.40000000     -42.90000000     -44.40000000     -45.90000000     -47.40000000     -48.90000000     -50.40000000     -51.90000000     -53.40000000     -54.90000000     -56.40000000     -57.90000000     -59.40000000     -60.90000000     -62.40000000     -63.90000000     -65.40000000     -66.90000000     -68.40000000     -69.90000000
       -71.40000000     -72.90000000     -74.40000000     -75.90000000     -77.40000000     -78.90000000     -80.40000000     -81.90000000     -83.40000000     -84.90000000     -86.40000000     -87.90000000     -89.40000000     -90.90000000     -92.40000000     -93.90000000     -95.40000000     -96.90000000     -98.40000000     -99.90000000
      -101.40000000    -102.90000000    -104.40000000    -105.90000000    -107.40000000    -108.90000000    -110.40000000    -111.90000000    -113.40000000    -114.90000000    -116.40000000    -117.90000000    -119.40000000    -120.90000000    -122.40000000    -123.90000000    -125.40000000    -126.90000000    -128.40000000    -129.90000000
      -131.40000000    -132.90000000    -131.58000007    -132.32000008    -105.47999992    -101.92999878     -92.85999908    -139.15999999    -143.40000000    -144.90000000    -146.40000000    -147.90000000    -149.40000000    -150.90000000    -152.40000000    -153.90000000    -155.40000000    -156.90000000    -158.40000000    -159.90000000
       -11.40000000     -12.90000000     -14.40000000     -15.90000000     -17.40000000     -18.90000000     -20.40000000     -21.90000000     -23.40000000     -24.90000000     -26.40000000     -27.90000000     -29.40000000     -30.90000000     -32.40000000     -33.90000000     -35.40000000     -36.90000000     -38.40000000     -39.90000000
       -41.40000000     -42.90000000     -44.40000000     -45.90000000     -47.40000000     -48.90000000     -50.40000000     -51.90000000     -53.40000000     -54.90000000     -56.40000000     -57.90000000     -59.40000000     -60.90000000     -62.40000000     -63.90000000     -65.40000000     -66.90000000     -68.40000000     -69.90000000
       -71.40000000     -72.90000000     -74.40000000     -75.90000000     -77.40000000     -78.90000000     -80.40000000     -81.90000000     -83.40000000     -84.90000000     -86.40000000     -87.90000000     -89.40000000     -90.90000000     -92.40000000     -93.90000000     -95.40000000     -96.90000000     -98.40000000     -99.90000000
      -101.40000000    -102.90000000    -104.40000000    -105.90000000    -107.40000000    -108.90000000    -110.40000000    -111.90000000    -113.40000000    -114.90000000    -116.40000000    -117.90000000    -119.40000000    -120.90000000    -122.40000000    -123.90000000    -125.40000000    -126.90000000    -128.40000000    -129.90000000
      -131.40000000    -132.90000000    -133.45000001    -135.83000000     -99.83999863     -99.67999878    -100.78999939     -92.19999924     -90.56999817     -94.65000000    -146.40000000    -147.90000000    -149.40000000    -150.90000000    -152.40000000    -153.90000000    -155.40000000    -156.90000000    -158.40000000    -159.90000000
       -11.40000000     -12.90000000     -14.40000000     -15.90000000     -17.40000000     -18.90000000     -20.40000000     -21.90000000     -23.40000000     -24.90000000     -26.40000000     -27.90000000     -29.40000000     -30.90000000     -32.40000000     -33.90000000     -35.40000000     -36.90000000     -38.40000000     -39.90000000
       -41.40000000     -42.90000000     -44.40000000     -45.90000000     -47.40000000     -48.90000000     -50.40000000     -51.90000000     -53.40000000     -54.90000000     -56.40000000     -57.90000000     -59.40000000     -60.90000000     -62.40000000     -63.90000000     -65.40000000     -66.90000000     -68.40000000     -69.90000000
       -71.40000000     -72.90000000     -74.40000000     -75.90000000     -77.40000000     -78.90000000     -80.40000000     -81.90000000     -83.40000000     -84.90000000     -86.40000000     -87.90000000     -89.40000000     -90.90000000     -92.40000000     -93.90000000     -95.40000000     -96.90000000     -98.40000000     -99.90000000
      -101.40000000    -102.90000000    -104.40000000    -105.90000000    -107.40000000    -108.90000000    -110.40000000    -111.90000000    -113.40000000    -114.90000000    -116.40000000    -117.90000000    -119.40000000    -120.90000000    -122.40000000    -123.90000000    -125.40000000    -126.90000000    -128.40000000    -129.90000000
      -131.40000000    -132.90000000    -133.10000005    -135.83000000     -97.69999924     -90.96999969     -87.99999847     -90.67999878     -92.42999878    -101.55999985    -101.83999863    -147.90000000    -149.40000000    -150.90000000    -152.40000000    -153.90000000    -155.40000000    -156.90000000    -158.40000000    -159.90000000
       -11.40000000     -12.90000000     -14.40000000     -15.90000000     -17.40000000     -18.90000000     -20.40000000     -21.90000000     -23.40000000     -24.90000000     -26.40000000     -27.90000000     -29.40000000     -30.90000000     -32.40000000     -33.90000000     -35.40000000     -36.90000000     -38.40000000     -39.90000000
       -41.40000000     -42.90000000     -44.40000000     -45.90000000     -47.40000000     -48.90000000     -50.40000000     -51.90000000     -53.40000000     -54.90000000     -56.40000000     -57.90000000     -59.40000000     -60.90000000     -62.40000000     -63.90000000     -65.40000000     -66.90000000     -68.40000000     -69.90000000
       -71.40000000     -72.90000000     -74.40000000     -75.90000000     -77.40000000     -78.90000000     -80.40000000     -81.90000000     -83.40000000     -84.90000000     -86.40000000     -87.90000000     -89.40000000     -90.90000000     -92.40000000     -93.90000000     -95.40000000     -96.90000000     -98.40000000     -99.90000000
      -101.40000000    -102.90000000    -104.40000000    -105.90000000    -107.40000000    -108.90000000    -110.40000000    -111.90000000    -113.40000000    -114.90000000    -116.40000000    -117.90000000    -119.40000000    -120.90000000    -122.40000000    -123.90000000    -125.40000000    -126.90000000    -128.40000000    -129.90000000
      -131.40000000    -132.90000000    -134.33000000    -135.83000000    -137.33000000     -91.35999908     -94.58999863     -97.81999817     -90.42999878     -95.85999908     -99.46999969    -108.65000000    -149.40000000    -150.90000000    -152.40000000    -153.90000000    -155.40000000    -156.90000000    -158.40000000    -159.90000000
       -11.40000000     -12.90000000     -14.40000000     -15.90000000     -17.40000000     -18.90000000     -20.40000000     -21.90000000     -23.40000000     -24.90000000     -26.40000000     -27.90000000     -29.40000000     -30.90000000     -32.40000000     -33.90000000     -35.40000000     -36.90000000     -38.40000000     -39.90000000
       -41.40000000     -42.90000000     -44.40000000     -45.90000000     -47.40000000     -48.90000000     -50.40000000     -51.90000000     -53.40000000     -54.90000000     -56.40000000     -57.90000000     -59.40000000     -60.90000000     -62.40000000     -63.90000000     -65.40000000     -66.90000000     -68.40000000     -69.90000000
       -71.40000000     -72.90000000     -74.40000000     -75.90000000     -77.40000000     -78.90000000     -80.40000000     -81.90000000     -83.40000000     -84.90000000     -86.40000000     -87.90000000     -89.40000000     -90.90000000     -92.40000000     -93.90000000     -95.40000000     -96.90000000     -98.40000000     -99.90000000
      -101.40000000    -102.90000000    -104.40000000    -105.90000000    -107.40000000    -108.90000000    -110.40000000    -111.90000000    -113.40000000    -114.90000000    -116.40000000    -117.90000000    -119.40000000    -120.90000000    -122.40000000    -123.90000000    -125.40000000    -126.90000000    -128.40000000    -129.90000000
      -131.40000000    -132.90000000    -134.45000000    -135.83000000    -137.33000000    -109.95999947    -103.55999985    -100.99000015    -107.71999969    -105.74999847    -115.63999977    -147.90000000    -149.40000000    -150.90000000    -152.40000000    -153.90000000    -155.40000000    -156.90000000    -158.40000000    -159.90000000
       -11.40000000     -12.90000000     -14.40000000     -15.90000000     -17.40000000     -18.90000000     -20.40000000     -21.90000000     -23.40000000     -24.90000000     -26.40000000     -27.90000000     -29.40000000     -30.90000000     -32.40000000     -33.90000000     -35.40000000     -36.90000000     -38.40000000     -39.90000000
       -41.40000000     -42.90000000     -44.40000000     -45.90000000     -47.40000000     -48.90000000     -50.40000000     -51.90000000     -53.40000000     -54.90000000     -56.40000000     -57.90000000     -59.40000000     -60.90000000     -62.40000000     -63.90000000     -65.40000000     -66.90000000     -68.40000000     -69.90000000
       -71.40000000     -72.90000000     -74.40000000     -75.90000000     -77.40000000     -78.90000000     -80.40000000     -81.90000000     -83.40000000     -84.90000000     -86.40000000     -87.90000000     -89.40000000     -90.90000000     -92.40000000     -93.90000000     -95.40000000     -96.90000000     -98.40000000     -99.90000000
      -101.40000000    -102.90000000    -104.40000000    -105.90000000    -107.40000000    -108.90000000    -110.40000000    -111.90000000    -113.40000000    -114.90000000    -116.40000000    -117.90000000    -119.40000000    -120.90000000    -122.40000000    -123.90000000    -125.40000000    -126.90000000    -128.40000000    -129.90000000
      -131.40000000    -132.90000000    -134.33000000    -135.83000000    -137.33000000     -99.01999893    -109.42000046    -133.87999954    -137.22999992    -115.95999947    -101.60999908    -147.90000000    -149.40000000    -150.90000000    -152.40000000    -153.90000000    -155.40000000    -156.90000000    -158.40000000    -159.90000000
       -11.40000000     -12.90000000     -14.40000000     -15.90000000     -17.40000000     -18.90000000     -20.40000000     -21.90000000     -23.40000000     -24.90000000     -26.40000000     -27.90000000     -29.40000000     -30.90000000     -32.40000000     -33.90000000     -35.40000000     -36.90000000     -38.40000000     -39.90000000
       -41.40000000     -42.90000000     -44.40000000     -45.90000000     -47.40000000     -48.90000000     -50.40000000     -51.90000000     -53.40000000     -54.90000000     -56.40000000     -57.90000000     -59.40000000     -60.90000000     -62.40000000     -63.90000000     -65.40000000     -66.90000000     -68.40000000     -69.90000000
       -71.40000000     -72.90000000     -74.40000000     -75.90000000     -77.40000000     -78.90000000     -80.40000000     -81.90000000     -83.40000000     -84.90000000     -86.40000000     -87.90000000     -89.40000000     -90.90000000     -92.40000000     -93.90000000     -95.40000000     -96.90000000     -98.40000000     -99.90000000
      -101.40000000    -102.90000000    -104.40000000    -105.90000000    -107.40000000    -108.90000000    -110.40000000    -111.90000000    -113.40000000    -114.90000000    -116.40000000    -117.90000000    -119.40000000    -120.90000000    -122.40000000    -123.90000000    -125.40000000    -126.90000000    -128.40000000    -129.90000000
      -131.40000000    -132.90000000    -134.31000000    -135.83000000    -137.33000000    -124.58000031    -112.69999924    -117.27999916    -143.33000000    -144.83000000    -145.30999997    -147.90000000    -149.40000000    -150.90000000    -152.40000000    -153.90000000    -155.40000000    -156.90000000    -158.40000000    -159.90000000
       -11.40000000     -12.90000000     -14.40000000     -15.90000000     -17.40000000     -18.90000000     -20.40000000     -21.90000000     -23.40000000     -24.90000000     -26.40000000     -27.90000000     -29.40000000     -30.90000000     -32.40000000     -33.90000000     -35.40000000     -36.90000000     -38.40000000     -39.90000000
       -41.40000000     -42.90000000     -44.40000000     -45.90000000     -47.40000000     -48.90000000     -50.40000000     -51.90000000     -53.40000000     -54.90000000     -56.40000000     -57.90000000     -59.40000000     -60.90000000     -62.40000000     -63.90000000     -65.40000000     -66.90000000     -68.40000000     -69.90000000
       -71.40000000     -72.90000000     -74.40000000     -75.90000000     -77.40000000     -78.90000000     -80.40000000     -81.90000000     -83.40000000     -84.90000000     -86.40000000     -87.90000000     -89.40000000     -90.90000000     -92.40000000     -93.90000000     -95.40000000     -96.90000000     -98.40000000     -99.90000000
      -101.40000000     258.27999268     298.05999146     281.98000488     152.89998779     174.02001343     136.99999390     112.51999817      94.37999878      80.84000549      45.12000427      25.98000488      16.56000671      24.15999756      25.10000000      41.37999878      16.65999756     -27.70999756     -60.77000275    -111.18000069
      -124.11999979    -130.56000009    -130.03999987    -135.83000000    -130.72999992    -125.50999966    -136.93999996    -133.46999969    -143.33000000    -144.83000000    -144.01999989    -147.90000000    -149.40000000    -150.90000000    -152.40000000    -153.90000000    -155.40000000    -156.90000000    -158.40000000    -159.90000000
       -11.40000000     -12.90000000     -14.40000000     -15.90000000     -17.40000000     -18.90000000     -20.40000000     -21.90000000     -23.40000000     -24.90000000     -26.40000000     -27.90000000     -29.40000000     -30.90000000     -32.40000000     -33.90000000     -35.40000000     -36.90000000     -38.40000000     -39.90000000
       -41.40000000     -42.90000000     -44.40000000     -45.90000000     -47.40000000     -48.90000000     -50.40000000     -51.90000000     -53.40000000     -54.90000000     -56.40000000     -57.90000000     -59.40000000     -60.90000000     -62.40000000     -63.90000000     -65.40000000     -66.90000000     -68.40000000     -69.90000000
       -71.40000000     -72.90000000     -74.40000000     -75.90000000     -77.40000000     -78.90000000     -80.40000000     -81.90000000     -83.40000000     -84.90000000     -86.40000000     -87.90000000     -89.40000000     -90.90000000     -92.40000000     -93.90000000     -95.40000000     -96.90000000     -98.40000000     -99.90000000
      -101.40000000     265.02001343     293.98000488     309.98000488     203.71999512     119.77999268     170.60000000     120.49999390     103.35999451      98.56000671      84.01999817      56.12000427      10.59000549       4.69999847      15.04999695       9.40000305     -19.12000122     -72.80999985     -52.95000305    -106.33000031
      -120.80999985    -132.83000000    -134.33000000    -135.83000000    -137.33000000    -138.83000000    -140.33000000    -141.83000000    -143.33000000    -144.83000000    -145.65000000    -147.90000000    -149.40000000    -150.90000000    -152.40000000    -153.90000000    -155.40000000    -156.90000000    -158.40000000    -159.90000000
       -11.40000000     -12.90000000     -14.40000000     -15.90000000     -17.40000000     -18.90000000     -20.40000000     -21.90000000     -23.40000000     -24.90000000     -26.40000000     -27.90000000     -29.40000000     -30.90000000     -32.40000000     -33.90000000     -35.40000000     -36.90000000     -38.40000000     -39.90000000
       -41.40000000     -42.90000000     -44.40000000     -45.90000000     -47.40000000     -48.90000000     -50.40000000     -51.90000000     -53.40000000     -54.90000000     -56.40000000     -57.90000000     -59.40000000     -60.90000000     -62.40000000     -63.90000000     -65.40000000     -66.90000000     -68.40000000     -69.90000000
       -71.40000000     -72.90000000     -74.40000000     -75.90000000     -77.40000000     -78.90000000     -80.40000000     -81.90000000     -83.40000000     -84.90000000     -86.40000000     -87.90000000     -89.40000000     -90.90000000     -92.40000000     -93.90000000     -95.40000000     -96.90000000     -98.40000000     -99.90000000
      -101.40000000     290.49999390     303.30001221     219.08999023     119.57999573     104.40000305     124.42000732     172.27001343     112.93999634     135.24999390      77.54999695      53.32999573      10.87000427       7.73999939      29.12999878     -10.67999878       7.90000305     -23.96999969     -76.74999847    -120.92000046
      -120.33000031    -132.83000000    -134.33000000    -135.83000000    -137.33000000    -138.83000000    -140.33000000    -141.83000000    -143.33000000    -144.83000000    -146.40000000    -147.90000000    -149.40000000    -150.90000000    -152.40000000    -153.90000000    -155.40000000    -156.90000000    -158.40000000    -159.90000000
       -11.40000000     -12.90000000     -14.40000000     -15.90000000     -17.40000000     -18.90000000     -20.40000000     -21.90000000     -23.40000000     -24.90000000     -26.40000000     -27.90000000     -29.40000000     -30.90000000     -32.40000000     -33.90000000     -35.40000000     -36.90000000     -38.40000000     -39.90000000
       -41.40000000     -42.90000000     -44.40000000     -45.90000000     -47.40000000     -48.90000000     -50.40000000     -51.90000000     -53.40000000     -54.90000000     -56.40000000     -57.90000000     -59.40000000     -60.90000000     -62.40000000     -63.90000000     -65.40000000     -66.90000000     -68.40000000     -69.90000000
       -71.40000000     -72.90000000     -74.40000000     -75.90000000     -77.40000000     -78.90000000     -80.40000000     -81.90000000     -83.40000000     -84.90000000     -86.40000000     -87.90000000     -89.40000000     -90.90000000     -92.40000000     -93.90000000     -95.40000000     -96.90000000     -98.40000000     -99.90000000
      -101.40000000     155.12999878     149.20000610      98.65999756      79.23999939      74.26000366     101.76000366     147.10000000     116.52999268     100.26999817      72.26999817      45.10000000      46.93999634      51.40000305      45.60000000      12.90000305     -51.31999817     -37.16999664     -96.21999969     -89.19999924
      -129.23999991    -131.82999995    -134.33000000    -135.83000000    -137.33000000    -138.83000000    -140.33000000    -141.83000000    -143.33000000    -143.06999996    -146.40000000    -147.90000000    -149.40000000    -150.90000000    -152.40000000    -153.90000000    -155.40000000    -156.90000000    -158.40000000    -159.90000000
       -11.40000000     -12.90000000     -14.40000000     -15.90000000     -17.40000000     -18.90000000     -20.40000000     -21.90000000     -23.40000000     -24.90000000     -26.40000000     -27.90000000     -29.40000000     -30.90000000     -32.40000000     -33.90000000     -35.40000000     -36.90000000     -38.40000000     -39.90000000
       -41.40000000     -42.90000000     -44.40000000     -45.90000000     -47.40000000     -48.90000000     -50.40000000     -51.90000000     -53.40000000     -54.90000000     -56.40000000     -57.90000000     -59.40000000     -60.90000000     -62.40000000     -63.90000000     -65.40000000     -66.90000000     -68.40000000     -69.90000000
       -71.40000000     -72.90000000     -74.40000000     -75.90000000     -77.40000000     -78.90000000     -80.40000000     -81.90000000     -83.40000000     -84.90000000     -86.40000000     -87.90000000     -89.40000000     -90.90000000     -92.40000000     -93.90000000     -95.40000000     -96.90000000     -98.40000000     -99.90000000
      -101.40000000      73.96000061      68.57999573      58.07999573      61.84000549      64.37999878      78.42000732      88.56000671      84.76000366      80.24999390      63.54000244      62.45000610      65.92000732      59.68000183      36.35999451      16.98000488     -46.73999634     -78.78999939     -75.87999954     -99.13999977
      -125.61999979    -129.58000007    -134.33000000    -135.83000000    -137.33000000    -138.83000000    -140.33000000    -141.83000000    -138.95999994    -142.72999992    -146.40000000    -147.90000000    -149.40000000    -150.90000000    -152.40000000    -153.90000000    -155.40000000    -156.90000000    -158.40000000    -159.90000000
       -11.40000000     -12.90000000     -14.40000000     -15.90000000     -17.40000000     -18.90000000     -20.40000000     -21.90000000     -23.40000000     -24.90000000     -26.40000000     -27.90000000     -29.40000000     -30.90000000     -32.40000000     -33.90000000     -35.40000000     -36.90000000     -38.40000000     -39.90000000
       -41.40000000     -42.90000000     -44.40000000     -45.90000000     -47.40000000     -48.90000000     -50.40000000     -51.90000000     -53.40000000     -54.90000000     -56.40000000     -57.90000000     -59.40000000     -60.90000000     -62.40000000     -63.90000000     -65.40000000     -66.90000000     -68.40000000     -69.90000000
       -71.40000000     -72.90000000     -74.40000000     -75.90000000     -77.40000000     -78.90000000     -80.40000000     -81.90000000     -83.40000000     -84.90000000     -86.40000000     -87.90000000     -89.40000000     -90.90000000     -92.40000000     -93.90000000     -95.40000000     -96.90000000     -98.40000000     -99.90000000
      -101.40000000      57.32000122      50.29999695      50.02999268      54.29999695      72.40000305      66.70000610      54.62000427      41.56000671      67.42000732      45.32000122      37.79999695      81.29999695      50.40000305      17.20000610       8.54000244      -6.90000000      -2.42999878     -64.80999985    -104.77999916
      -130.53000000    -132.83000000    -134.33000000    -135.83000000    -137.33000000    -138.83000000    -140.33000000    -140.00000002    -143.33000000    -144.83000000    -147.00000002    -147.90000000    -149.40000000    -150.90000000    -152.40000000    -153.90000000    -155.40000000    -156.90000000    -158.40000000    -159.90000000
       -11.40000000     -12.90000000     -14.40000000     -15.90000000     -17.40000000     -18.90000000     -20.40000000     -21.90000000     -23.40000000     -24.90000000     -26.40000000     -27.90000000     -29.40000000     -30.90000000     -32.40000000     -33.90000000     -35.40000000     -36.90000000     -38.40000000     -39.90000000
       -41.40000000     -42.90000000     -44.40000000     -45.90000000     -47.40000000     -48.90000000     -50.40000000     -51.90000000     -53.40000000     -54.90000000     -56.40000000     -57.90000000     -59.40000000     -60.90000000     -62.40000000     -63.90000000     -65.40000000     -66.90000000     -68.40000000     -69.90000000
       -71.40000000     -72.90000000     -74.40000000     -75.90000000     -77.40000000     -78.90000000     -80.40000000     -81.90000000     -83.40000000     -84.90000000     -86.40000000     -87.90000000     -89.40000000     -90.90000000     -92.40000000     -93.90000000     -95.40000000     -96.90000000     -98.40000000     -99.90000000
      -101.40000000      50.67000732      49.90000305      55.13999329      65.12000427      91.17000732      82.99999390      70.35000000      59.37999878      65.93000183      42.32999573      24.54000244      39.35000000      30.26999817       9.09000549      11.90000305       3.09000549     -43.23999634    -103.03999939    -129.20000001
      -131.33000000    -132.83000000    -134.33000000    -135.83000000    -137.33000000    -138.83000000    -140.33000000    -140.78999999    -143.33000000    -141.87000003    -146.40000000    -147.90000000    -149.40000000    -150.90000000    -152.40000000    -153.90000000    -155.40000000    -156.90000000    -158.40000000    -159.90000000
       -11.40000000     -12.90000000     -14.40000000     -15.90000000     -17.40000000     -18.90000000     -20.40000000     -21.90000000     -23.40000000     -24.90000000     -26.40000000     -27.90000000     -29.40000000     -30.90000000     -32.40000000     -33.90000000     -35.40000000     -36.90000000     -38.40000000     -39.90000000
       -41.40000000     -42.90000000     -44.40000000     -45.90000000     -47.40000000     -48.90000000     -50.40000000     -51.90000000     -53.40000000     -54.90000000     -56.40000000     -57.90000000     -59.40000000     -60.90000000     -62.40000000     -63.90000000     -65.40000000     -66.90000000     -68.40000000     -69.90000000
       -71.40000000     -72.90000000     -74.40000000     -75.90000000     -77.40000000     -78.90000000     -80.40000000     -81.90000000     -83.40000000     -84.90000000     -86.40000000     -87.90000000     -89.40000000     -90.90000000     -92.40000000     -93.90000000     -95.40000000     -96.90000000     -98.40000000     -99.90000000
      -101.40000000      66.34000549      55.42000732      58.40999756      74.98000488      93.34000549      71.01999817      72.17000732      37.62000427      43.49999390      14.68000183     -45.30000153       9.10000000      24.10000000       4.72000275     -21.09999695     -99.10000076    -126.59999999    -128.33000000    -129.83000000
      -131.33000000    -132.83000000    -134.33000000    -135.83000000    -137.33000000    -138.83000000    -138.23999991    -141.83000000    -141.29000010    -142.64000001    -146.40000000    -147.90000000    -149.40000000    -150.90000000    -152.40000000    -153.90000000    -155.40000000    -156.90000000    -158.40000000    -159.90000000
       -11.40000000     -12.90000000     -14.40000000     -15.90000000     -17.40000000     -18.90000000     -20.40000000     -21.90000000     -23.40000000     -24.90000000     -26.40000000     -27.90000000     -29.40000000     -30.90000000     -32.40000000     -33.90000000     -35.40000000     -36.90000000     -38.40000000     -39.90000000
       -41.40000000     -42.90000000     -44.40000000     -45.90000000     -47.40000000     -48.90000000     -50.40000000     -51.90000000     -53.40000000     -54.90000000     -56.40000000     -57.90000000     -59.40000000     -60.90000000     -62.40000000     -63.90000000     -65.40000000     -66.90000000     -68.40000000     -69.90000000