# Name file for MODPATH 7, generated by Flopy version 3.3.0.
MPBAS      first_2D_mp.mpbas
GRBDIS     first_2D.dis.grb
TDIS       first2D_mf6.tdis
HEAD       first_2D.hds
BUDGET     first_2D.cbc
