BEGIN options
  SAVE_FLOWS
END options

BEGIN dimensions
  MAXBOUND  2271
END dimensions

BEGIN period  1
  1 66 119  8.74547025E-09
  1 67 118  8.74547025E-09
  1 67 119  8.74547025E-09
  1 68 118  8.74547025E-09
  1 68 119  8.74547025E-09
  1 69 115  8.74547025E-09
  1 69 116  8.74547025E-09
  1 69 117  8.74547025E-09
  1 69 118  8.74547025E-09
  1 70 87  8.97648297E-09
  1 70 88  1.01586695E-08
  1 70 114  8.74547025E-09
  1 70 115  8.74547025E-09
  1 70 116  8.74547025E-09
  1 70 117  8.74547025E-09
  1 71 72  8.87674344E-09
  1 71 73  8.87674344E-09
  1 71 86  8.97648297E-09
  1 71 87  8.97648297E-09
  1 71 88  8.97648297E-09
  1 71 89  8.97648297E-09
  1 71 90  8.97648297E-09
  1 71 91  8.97648297E-09
  1 71 92  8.97648297E-09
  1 71 93  1.01586695E-08
  1 71 114  8.74547025E-09
  1 71 115  8.74547025E-09
  1 71 116  8.74547025E-09
  1 72 72  8.69082098E-09
  1 72 73  8.87674344E-09
  1 72 74  8.87674344E-09
  1 72 85  8.97648297E-09
  1 72 86  8.97648297E-09
  1 72 87  8.97648297E-09
  1 72 88  8.97648297E-09
  1 72 89  8.97648297E-09
  1 72 90  8.97648297E-09
  1 72 91  8.97648297E-09
  1 72 92  8.97648297E-09
  1 72 93  8.97648297E-09
  1 72 94  1.01586695E-08
  1 72 113  8.74547025E-09
  1 72 114  8.74547025E-09
  1 72 115  8.74547025E-09
  1 73 73  8.69082098E-09
  1 73 74  8.87674344E-09
  1 73 75  8.87674344E-09
  1 73 76  8.87674344E-09
  1 73 92  8.97648297E-09
  1 73 93  8.97648297E-09
  1 73 94  8.97648297E-09
  1 73 95  8.97648297E-09
  1 73 99  9.89723302E-09
  1 73 100  9.89723302E-09
  1 73 112  8.74547025E-09
  1 73 113  8.74547025E-09
  1 73 114  8.74547025E-09
  1 74 74  8.69082098E-09
  1 74 75  8.69082098E-09
  1 74 76  8.87674344E-09
  1 74 77  8.87674344E-09
  1 74 78  8.87674344E-09
  1 74 79  8.87674344E-09
  1 74 80  8.87674344E-09
  1 74 81  8.87674344E-09
  1 74 82  8.87674344E-09
  1 74 94  8.97648297E-09
  1 74 95  8.97648297E-09
  1 74 96  8.97648297E-09
  1 74 97  8.97648297E-09
  1 74 98  8.74547025E-09
  1 74 99  8.74547025E-09
  1 74 100  8.74547025E-09
  1 74 101  8.74547025E-09
  1 74 102  8.74547025E-09
  1 74 111  8.74547025E-09
  1 74 112  8.74547025E-09
  1 74 113  8.74547025E-09
  1 75 75  8.69082098E-09
  1 75 76  8.69082098E-09
  1 75 77  8.87674344E-09
  1 75 78  8.87674344E-09
  1 75 79  8.87674344E-09
  1 75 80  8.87674344E-09
  1 75 81  8.87674344E-09
  1 75 82  8.87674344E-09
  1 75 94  8.97648297E-09
  1 75 95  8.97648297E-09
  1 75 96  8.97648297E-09
  1 75 97  8.97648297E-09
  1 75 98  8.74547025E-09
  1 75 99  8.74547025E-09
  1 75 100  8.74547025E-09
  1 75 101  8.74547025E-09
  1 75 102  8.74547025E-09
  1 75 103  8.74547025E-09
  1 75 104  8.74547025E-09
  1 75 109  8.74547025E-09
  1 75 110  8.74547025E-09
  1 75 111  8.74547025E-09
  1 75 112  8.74547025E-09
  1 76 76  8.69082098E-09
  1 76 77  8.69082098E-09
  1 76 78  8.69082098E-09
  1 76 79  8.87674344E-09
  1 76 80  8.87674344E-09
  1 76 81  8.87674344E-09
  1 76 82  8.87674344E-09
  1 76 96  8.97648297E-09
  1 76 97  8.97648297E-09
  1 76 98  8.74547025E-09
  1 76 99  8.74547025E-09
  1 76 100  8.74547025E-09
  1 76 101  8.74547025E-09
  1 76 102  8.74547025E-09
  1 76 103  8.74547025E-09
  1 76 104  8.74547025E-09
  1 76 105  8.74547025E-09
  1 76 106  8.74547025E-09
  1 76 108  8.74547025E-09
  1 76 109  8.74547025E-09
  1 76 110  8.74547025E-09
  1 76 111  8.74547025E-09
  1 77 77  8.69082098E-09
  1 77 78  8.69082098E-09
  1 77 79  8.69082098E-09
  1 77 80  8.87674344E-09
  1 77 81  8.87674344E-09
  1 77 82  8.87674344E-09
  1 77 99  8.74547025E-09
  1 77 100  8.74547025E-09
  1 77 101  8.74547025E-09
  1 77 102  8.74547025E-09
  1 77 103  8.74547025E-09
  1 77 104  8.74547025E-09
  1 77 105  8.74547025E-09
  1 77 106  8.74547025E-09
  1 77 107  8.74547025E-09
  1 77 108  8.74547025E-09
  1 77 109  8.74547025E-09
  1 77 110  8.74547025E-09
  1 78 79  8.69082098E-09
  1 78 80  8.69082098E-09
  1 78 81  8.69082098E-09
  1 78 82  8.87674344E-09
  1 78 104  8.74547025E-09
  1 78 105  8.74547025E-09
  1 78 106  8.74547025E-09
  1 78 107  8.74547025E-09
  1 78 108  8.74547025E-09
  1 78 109  8.74547025E-09
  1 78 110  8.74547025E-09
  1 78 111  8.74547025E-09
  1 83 114  8.76271380E-09
  1 83 115  8.76271380E-09
  1 83 116  8.76271380E-09
  1 83 117  8.76271380E-09
  1 83 118  8.76271380E-09
  1 83 119  8.76271380E-09
  1 83 120  8.76271380E-09
  1 83 121  8.76271380E-09
  1 83 122  8.76271380E-09
  1 83 123  8.76271380E-09
  1 84 114  5.55522983E-09
  1 84 115  5.55522983E-09
  1 84 116  5.55522983E-09
  1 84 117  5.55522983E-09
  1 84 118  5.55522983E-09
  1 84 119  5.55522983E-09
  1 84 120  5.55522983E-09
  1 84 121  5.55522983E-09
  1 84 122  5.55522983E-09
  1 84 123  5.55522983E-09
  1 84 124  1.15072617E-08
  1 85 115  5.55522983E-09
  1 85 116  5.55522983E-09
  1 85 117  5.55522983E-09
  1 85 118  5.55522983E-09
  1 85 119  5.55522983E-09
  1 85 120  5.55522983E-09
  1 85 121  5.55522983E-09
  1 85 122  5.55522983E-09
  1 85 123  5.55522983E-09
  1 85 124  1.15072617E-08
  1 94 105  5.55522983E-09
  1 94 106  5.55522983E-09
  1 94 109  5.55522983E-09
  1 94 110  5.55522983E-09
  1 94 111  5.55522983E-09
  1 94 112  5.55522983E-09
  1 94 113  5.55522983E-09
  1 95 100  5.55522983E-09
  1 95 101  5.55522983E-09
  1 95 102  5.55522983E-09
  1 95 103  5.55522983E-09
  1 95 104  5.55522983E-09
  1 95 105  5.19033497E-09
  1 95 106  5.19033497E-09
  1 95 107  5.19033497E-09
  1 95 108  5.19033497E-09
  1 95 109  5.19033497E-09
  1 95 110  5.19033497E-09
  1 95 111  5.19033497E-09
  1 95 112  5.19033497E-09
  1 95 113  5.55522983E-09
  1 95 114  5.55522983E-09
  1 95 115  5.55522983E-09
  1 95 116  5.55522983E-09
  1 95 117  5.55522983E-09
  1 95 118  5.55522983E-09
  1 95 119  5.55522983E-09
  1 96 98  5.55522983E-09
  1 96 99  5.55522983E-09
  1 96 100  5.55522983E-09
  1 96 101  5.55522983E-09
  1 96 102  5.55522983E-09
  1 96 103  5.55522983E-09
  1 96 104  5.19033497E-09
  1 96 105  5.19033497E-09
  1 96 106  5.19033497E-09
  1 96 107  5.19033497E-09
  1 96 108  5.19033497E-09
  1 96 109  5.19033497E-09
  1 96 110  5.19033497E-09
  1 96 111  5.19033497E-09
  1 96 112  5.19033497E-09
  1 96 113  5.19033497E-09
  1 96 114  5.19033497E-09
  1 96 115  5.19033497E-09
  1 96 116  5.55522983E-09
  1 96 117  5.55522983E-09
  1 96 118  5.55522983E-09
  1 96 119  5.55522983E-09
  1 96 120  5.55522983E-09
  1 96 121  5.55522983E-09
  1 97 77  8.10137719E-09
  1 97 78  8.10137719E-09
  1 97 79  8.10137719E-09
  1 97 80  8.10137719E-09
  1 97 81  8.10137719E-09
  1 97 82  8.10137719E-09
  1 97 83  8.10137719E-09
  1 97 96  8.10137719E-09
  1 97 97  8.10137719E-09
  1 97 98  5.55522983E-09
  1 97 99  5.55522983E-09
  1 97 100  5.55522983E-09
  1 97 101  5.55522983E-09
  1 97 102  5.55522983E-09
  1 97 103  5.19033497E-09
  1 97 104  5.19033497E-09
  1 97 116  5.19033497E-09
  1 97 117  5.19033497E-09
  1 97 118  5.19033497E-09
  1 97 119  5.19033497E-09
  1 97 120  5.19033497E-09
  1 98 74  8.10137719E-09
  1 98 75  8.10137719E-09
  1 98 76  8.10137719E-09
  1 98 77  8.10137719E-09
  1 98 78  8.10137719E-09
  1 98 79  8.10137719E-09
  1 98 80  8.10137719E-09
  1 98 81  8.10137719E-09
  1 98 82  8.10137719E-09
  1 98 83  8.10137719E-09
  1 98 84  8.10137719E-09
  1 98 85  8.10137719E-09
  1 98 94  8.10137719E-09
  1 98 95  8.10137719E-09
  1 98 96  8.10137719E-09
  1 98 97  8.10137719E-09
  1 98 98  5.55522983E-09
  1 98 99  5.55522983E-09
  1 98 100  5.55522983E-09
  1 98 101  5.19033497E-09
  1 98 102  5.19033497E-09
  1 99 55  9.55631792E-09
  1 99 56  9.55631792E-09
  1 99 57  9.55631792E-09
  1 99 58  9.55631792E-09
  1 99 59  9.55631792E-09
  1 99 60  9.55631792E-09
  1 99 61  9.55631792E-09
  1 99 62  9.55631792E-09
  1 99 63  9.55631792E-09
  1 99 64  9.55631792E-09
  1 99 65  9.55631792E-09
  1 99 66  9.55631792E-09
  1 99 67  9.55631792E-09
  1 99 68  9.55631792E-09
  1 99 69  9.55631792E-09
  1 99 70  9.55631792E-09
  1 99 71  8.10137719E-09
  1 99 72  8.10137719E-09
  1 99 73  8.10137719E-09
  1 99 74  8.10137719E-09
  1 99 75  8.10137719E-09
  1 99 76  8.10137719E-09
  1 99 77  8.10137719E-09
  1 99 78  8.10137719E-09
  1 99 79  8.10137719E-09
  1 99 80  8.10137719E-09
  1 99 81  8.10137719E-09
  1 99 82  8.10137719E-09
  1 99 83  8.10137719E-09
  1 99 84  8.10137719E-09
  1 99 85  8.10137719E-09
  1 99 86  7.99360667E-09
  1 99 93  8.10137719E-09
  1 99 94  8.10137719E-09
  1 99 95  8.10137719E-09
  1 99 96  8.10137719E-09
  1 99 97  7.56923854E-09
  1 99 98  5.19033497E-09
  1 99 99  5.19033497E-09
  1 99 100  5.19033497E-09
  1 99 101  5.19033497E-09
  1 100 29  8.23364471E-09
  1 100 30  8.23364471E-09
  1 100 31  8.23364471E-09
  1 100 32  8.23364471E-09
  1 100 33  8.23364471E-09
  1 100 34  8.23364471E-09
  1 100 35  8.23364471E-09
  1 100 36  8.23364471E-09
  1 100 37  8.23364471E-09
  1 100 38  8.23364471E-09
  1 100 39  8.23364471E-09
  1 100 40  8.23364471E-09
  1 100 41  8.23364471E-09
  1 100 42  8.23364471E-09
  1 100 43  8.23364471E-09
  1 100 44  9.55631792E-09
  1 100 45  9.55631792E-09
  1 100 46  9.55631792E-09
  1 100 47  9.55631792E-09
  1 100 48  9.55631792E-09
  1 100 49  9.55631792E-09
  1 100 50  9.55631792E-09
  1 100 51  9.55631792E-09
  1 100 52  9.55631792E-09
  1 100 53  9.55631792E-09
  1 100 54  9.55631792E-09
  1 100 55  9.55631792E-09
  1 100 56  9.55631792E-09
  1 100 57  9.55631792E-09
  1 100 58  9.55631792E-09
  1 100 59  9.55631792E-09
  1 100 60  9.55631792E-09
  1 100 61  9.55631792E-09
  1 100 62  9.55631792E-09
  1 100 63  9.55631792E-09
  1 100 64  9.55631792E-09
  1 100 65  9.55631792E-09
  1 100 66  9.55631792E-09
  1 100 67  9.55631792E-09
  1 100 68  9.55631792E-09
  1 100 69  9.55631792E-09
  1 100 70  9.55631792E-09
  1 100 71  8.10137719E-09
  1 100 72  8.10137719E-09
  1 100 73  8.10137719E-09
  1 100 74  8.10137719E-09
  1 100 75  8.10137719E-09
  1 100 76  8.10137719E-09
  1 100 77  8.10137719E-09
  1 100 78  8.10137719E-09
  1 100 79  8.54911398E-09
  1 100 80  8.10137719E-09
  1 100 81  8.67323002E-09
  1 100 82  8.67323002E-09
  1 100 83  7.99360667E-09
  1 100 84  7.99360667E-09
  1 100 85  7.99360667E-09
  1 100 86  7.99360667E-09
  1 100 87  7.99360667E-09
  1 100 93  7.56923854E-09
  1 100 94  7.56923854E-09
  1 100 95  7.56923854E-09
  1 100 96  7.56923854E-09
  1 100 97  7.56923854E-09
  1 100 98  5.19033497E-09
  1 100 99  5.19033497E-09
  1 101 27  8.23364471E-09
  1 101 28  8.23364471E-09
  1 101 29  8.23364471E-09
  1 101 30  8.23364471E-09
  1 101 31  8.23364471E-09
  1 101 32  8.23364471E-09
  1 101 33  8.23364471E-09
  1 101 34  8.23364471E-09
  1 101 35  8.23364471E-09
  1 101 36  8.23364471E-09
  1 101 37  8.23364471E-09
  1 101 38  8.23364471E-09
  1 101 39  8.23364471E-09
  1 101 40  8.23364471E-09
  1 101 41  8.23364471E-09
  1 101 42  8.23364471E-09
  1 101 43  8.23364471E-09
  1 101 44  9.55631792E-09
  1 101 45  9.55631792E-09
  1 101 46  9.55631792E-09
  1 101 47  9.55631792E-09
  1 101 48  9.55631792E-09
  1 101 49  9.55631792E-09
  1 101 50  9.55631792E-09
  1 101 51  9.55631792E-09
  1 101 52  9.55631792E-09
  1 101 53  9.55631792E-09
  1 101 54  9.55631792E-09
  1 101 55  9.55631792E-09
  1 101 56  9.55631792E-09
  1 101 57  9.55631792E-09
  1 101 58  9.55631792E-09
  1 101 59  9.55631792E-09
  1 101 60  9.55631792E-09
  1 101 61  9.55631792E-09
  1 101 62  9.55631792E-09
  1 101 63  9.55631792E-09
  1 101 64  9.55631792E-09
  1 101 65  9.55631792E-09
  1 101 66  9.55631792E-09
  1 101 67  9.55631792E-09
  1 101 68  9.55631792E-09
  1 101 69  9.55631792E-09
  1 101 70  9.55631792E-09
  1 101 71  8.10137719E-09
  1 101 72  8.10137719E-09
  1 101 73  8.10137719E-09
  1 101 74  8.10137719E-09
  1 101 75  8.10137719E-09
  1 101 76  8.10137719E-09
  1 101 77  8.10137719E-09
  1 101 78  7.99360667E-09
  1 101 79  7.99360667E-09
  1 101 80  7.99360667E-09
  1 101 81  7.99360667E-09
  1 101 82  7.99360667E-09
  1 101 83  7.99360667E-09
  1 101 84  7.99360667E-09
  1 101 85  7.99360667E-09
  1 101 86  7.99360667E-09
  1 101 87  7.99360667E-09
  1 102 24  8.23364471E-09
  1 102 25  8.23364471E-09
  1 102 26  8.23364471E-09
  1 102 27  8.23364471E-09
  1 102 28  8.23364471E-09
  1 102 29  8.23364471E-09
  1 102 30  8.23364471E-09
  1 102 31  8.23364471E-09
  1 102 32  8.23364471E-09
  1 102 33  8.23364471E-09
  1 102 34  8.23364471E-09
  1 102 35  8.23364471E-09
  1 102 36  8.23364471E-09
  1 102 37  8.23364471E-09
  1 102 38  8.23364471E-09
  1 102 39  8.23364471E-09
  1 102 40  8.23364471E-09
  1 102 41  8.23364471E-09
  1 102 42  8.23364471E-09
  1 102 43  8.23364471E-09
  1 102 44  9.55631792E-09
  1 102 45  9.55631792E-09
  1 102 46  9.55631792E-09
  1 102 47  9.55631792E-09
  1 102 48  9.55631792E-09
  1 102 49  9.55631792E-09
  1 102 50  9.55631792E-09
  1 102 51  9.55631792E-09
  1 102 52  9.55631792E-09
  1 102 53  9.55631792E-09
  1 102 54  9.55631792E-09
  1 102 55  9.55631792E-09
  1 102 56  9.55631792E-09
  1 102 57  9.55631792E-09
  1 102 58  9.55631792E-09
  1 102 59  9.55631792E-09
  1 102 60  9.55631792E-09
  1 102 61  9.55631792E-09
  1 102 62  9.55631792E-09
  1 102 63  9.55631792E-09
  1 102 64  9.55631792E-09
  1 102 65  9.55631792E-09
  1 102 66  9.55631792E-09
  1 102 67  9.55631792E-09
  1 102 68  9.55631792E-09
  1 102 69  9.55631792E-09
  1 102 70  9.55631792E-09
  1 102 71  8.10137719E-09
  1 102 72  8.10137719E-09
  1 102 73  8.10137719E-09
  1 102 74  8.67323002E-09
  1 102 75  7.99360667E-09
  1 102 76  7.99360667E-09
  1 102 77  7.99360667E-09
  1 102 78  7.99360667E-09
  1 102 79  7.99360667E-09
  1 102 80  7.99360667E-09
  1 102 81  7.99360667E-09
  1 102 82  7.99360667E-09
  1 102 83  7.99360667E-09
  1 102 84  7.99360667E-09
  1 102 85  7.99360667E-09
  1 103 22  8.23364471E-09
  1 103 23  8.23364471E-09
  1 103 24  8.23364471E-09
  1 103 25  8.23364471E-09
  1 103 26  8.23364471E-09
  1 103 27  8.23364471E-09
  1 103 28  8.23364471E-09
  1 103 29  8.23364471E-09
  1 103 30  8.23364471E-09
  1 103 31  8.23364471E-09
  1 103 32  8.23364471E-09
  1 103 33  8.23364471E-09
  1 103 34  8.23364471E-09
  1 103 35  8.23364471E-09
  1 103 36  8.23364471E-09
  1 103 37  8.23364471E-09
  1 103 38  8.23364471E-09
  1 103 39  8.23364471E-09
  1 103 40  8.23364471E-09
  1 103 41  8.23364471E-09
  1 103 42  8.23364471E-09
  1 103 43  8.23364471E-09
  1 103 44  9.55631792E-09
  1 103 45  9.55631792E-09
  1 103 46  9.55631792E-09
  1 103 47  9.55631792E-09
  1 103 48  9.55631792E-09
  1 103 49  9.55631792E-09
  1 103 50  9.55631792E-09
  1 103 51  9.55631792E-09
  1 103 52  9.55631792E-09
  1 103 53  9.55631792E-09
  1 103 54  9.55631792E-09
  1 103 55  9.55631792E-09
  1 103 56  9.55631792E-09
  1 103 57  9.55631792E-09
  1 103 58  9.55631792E-09
  1 103 59  9.55631792E-09
  1 103 60  9.55631792E-09
  1 103 61  9.55631792E-09
  1 103 62  9.55631792E-09
  1 103 63  9.55631792E-09
  1 103 64  9.55631792E-09
  1 103 65  9.55631792E-09
  1 103 66  9.55631792E-09
  1 103 67  9.55631792E-09
  1 103 68  9.55631792E-09
  1 103 69  9.55631792E-09
  1 103 70  9.55631792E-09
  1 103 71  8.10137719E-09
  1 103 72  8.10137719E-09
  1 103 73  7.99360667E-09
  1 103 74  7.99360667E-09
  1 103 75  7.99360667E-09
  1 103 76  7.99360667E-09
  1 103 77  7.99360667E-09
  1 103 78  7.99360667E-09
  1 103 79  7.99360667E-09
  1 103 80  7.99360667E-09
  1 103 81  7.99360667E-09
  1 103 82  7.99360667E-09
  1 103 83  7.99360667E-09
  1 103 84  7.99360667E-09
  1 103 85  7.99360667E-09
  1 104 20  8.23364471E-09
  1 104 21  8.23364471E-09
  1 104 22  8.23364471E-09
  1 104 23  8.23364471E-09
  1 104 24  8.23364471E-09
  1 104 25  8.23364471E-09
  1 104 26  8.23364471E-09
  1 104 27  8.23364471E-09
  1 104 28  8.23364471E-09
  1 104 29  8.23364471E-09
  1 104 30  8.23364471E-09
  1 104 31  8.23364471E-09
  1 104 32  8.23364471E-09
  1 104 33  8.23364471E-09
  1 104 34  8.23364471E-09
  1 104 35  8.23364471E-09
  1 104 36  8.23364471E-09
  1 104 37  8.23364471E-09
  1 104 38  8.23364471E-09
  1 104 39  8.23364471E-09
  1 104 40  8.23364471E-09
  1 104 41  8.23364471E-09
  1 104 42  8.23364471E-09
  1 104 43  8.23364471E-09
  1 104 44  9.55631792E-09
  1 104 45  9.55631792E-09
  1 104 46  9.55631792E-09
  1 104 47  9.55631792E-09
  1 104 48  9.55631792E-09
  1 104 49  9.55631792E-09
  1 104 50  9.55631792E-09
  1 104 51  9.55631792E-09
  1 104 52  9.55631792E-09
  1 104 53  9.55631792E-09
  1 104 54  9.55631792E-09
  1 104 55  9.55631792E-09
  1 104 56  9.55631792E-09
  1 104 57  9.55631792E-09
  1 104 58  9.55631792E-09
  1 104 59  9.55631792E-09
  1 104 60  9.55631792E-09
  1 104 61  9.55631792E-09
  1 104 62  9.55631792E-09
  1 104 63  9.55631792E-09
  1 104 64  9.55631792E-09
  1 104 65  9.55631792E-09
  1 104 66  9.55631792E-09
  1 104 67  9.94553704E-09
  1 104 68  9.42919328E-09
  1 104 69  9.94553704E-09
  1 104 70  9.42919328E-09
  1 104 71  7.99360667E-09
  1 104 72  7.99360667E-09
  1 104 73  7.99360667E-09
  1 104 74  7.99360667E-09
  1 104 75  7.99360667E-09
  1 104 76  7.99360667E-09
  1 104 77  7.99360667E-09
  1 104 78  7.99360667E-09
  1 104 79  7.99360667E-09
  1 104 80  7.99360667E-09
  1 104 81  7.99360667E-09
  1 104 82  7.99360667E-09
  1 104 83  7.99360667E-09
  1 104 84  7.99360667E-09
  1 104 85  7.99360667E-09
  1 105 19  8.23364471E-09
  1 105 20  8.23364471E-09
  1 105 21  8.23364471E-09
  1 105 22  8.23364471E-09
  1 105 23  8.23364471E-09
  1 105 24  8.23364471E-09
  1 105 25  8.23364471E-09
  1 105 26  8.23364471E-09
  1 105 27  8.23364471E-09
  1 105 28  8.23364471E-09
  1 105 29  8.23364471E-09
  1 105 30  8.23364471E-09
  1 105 31  8.23364471E-09
  1 105 32  8.23364471E-09
  1 105 33  8.23364471E-09
  1 105 34  8.23364471E-09
  1 105 35  8.23364471E-09
  1 105 36  8.23364471E-09
  1 105 37  8.23364471E-09
  1 105 38  8.23364471E-09
  1 105 39  8.23364471E-09
  1 105 40  8.23364471E-09
  1 105 41  8.23364471E-09
  1 105 42  8.23364471E-09
  1 105 43  8.23364471E-09
  1 105 44  9.55631792E-09
  1 105 45  9.55631792E-09
  1 105 46  9.55631792E-09
  1 105 47  9.55631792E-09
  1 105 48  9.55631792E-09
  1 105 49  9.42919328E-09
  1 105 50  9.55631792E-09
  1 105 51  9.55631792E-09
  1 105 52  9.55631792E-09
  1 105 53  9.55631792E-09
  1 105 54  9.55631792E-09
  1 105 55  9.55631792E-09
  1 105 56  9.55631792E-09
  1 105 57  9.55631792E-09
  1 105 58  9.55631792E-09
  1 105 59  9.55631792E-09
  1 105 60  9.55631792E-09
  1 105 61  9.55631792E-09
  1 105 62  9.55631792E-09
  1 105 63  9.94553704E-09
  1 105 64  9.94553704E-09
  1 105 65  9.42919328E-09
  1 105 66  9.42919328E-09
  1 105 67  9.42919328E-09
  1 105 68  9.42919328E-09
  1 105 69  9.42919328E-09
  1 105 70  9.42919328E-09
  1 105 71  7.99360667E-09
  1 105 72  7.99360667E-09
  1 105 73  7.99360667E-09
  1 105 74  7.99360667E-09
  1 105 75  7.99360667E-09
  1 105 76  7.99360667E-09
  1 105 77  7.99360667E-09
  1 105 78  7.99360667E-09
  1 105 79  7.99360667E-09
  1 105 80  7.99360667E-09
  1 105 81  7.99360667E-09
  1 105 82  7.99360667E-09
  1 105 83  7.99360667E-09
  1 105 84  7.99360667E-09
  1 105 85  7.99360667E-09
  1 105 90  7.56923854E-09
  1 105 91  7.56923854E-09
  1 105 92  7.56923854E-09
  1 106 17  9.88698695E-09
  1 106 18  8.23364471E-09
  1 106 19  8.23364471E-09
  1 106 20  8.23364471E-09
  1 106 21  8.23364471E-09
  1 106 22  8.23364471E-09
  1 106 23  8.23364471E-09
  1 106 24  8.23364471E-09
  1 106 25  8.23364471E-09
  1 106 26  8.23364471E-09
  1 106 27  8.23364471E-09
  1 106 28  8.23364471E-09
  1 106 29  8.23364471E-09
  1 106 30  8.23364471E-09
  1 106 31  8.23364471E-09
  1 106 32  8.23364471E-09
  1 106 33  8.23364471E-09
  1 106 34  8.23364471E-09
  1 106 35  8.23364471E-09
  1 106 36  8.23364471E-09
  1 106 37  8.23364471E-09
  1 106 38  8.12411490E-09
  1 106 39  8.23364471E-09
  1 106 40  8.23364471E-09
  1 106 41  8.23364471E-09
  1 106 42  8.23364471E-09
  1 106 43  8.23364471E-09
  1 106 44  9.55631792E-09
  1 106 45  9.55631792E-09
  1 106 46  9.55631792E-09
  1 106 47  9.55631792E-09
  1 106 48  9.42919328E-09
  1 106 49  9.42919328E-09
  1 106 50  9.42919328E-09
  1 106 51  9.55631792E-09
  1 106 52  9.55631792E-09
  1 106 53  9.55631792E-09
  1 106 54  9.55631792E-09
  1 106 55  9.42919328E-09
  1 106 56  9.42919328E-09
  1 106 57  9.42919328E-09
  1 106 58  9.94553704E-09
  1 106 59  9.42919328E-09
  1 106 60  9.42919328E-09
  1 106 61  9.42919328E-09
  1 106 62  9.42919328E-09
  1 106 63  9.42919328E-09
  1 106 64  9.42919328E-09
  1 106 65  9.42919328E-09
  1 106 66  9.42919328E-09
  1 106 67  9.42919328E-09
  1 106 68  9.42919328E-09
  1 106 69  9.42919328E-09
  1 106 70  9.42919328E-09
  1 106 71  7.99360667E-09
  1 106 72  7.99360667E-09
  1 106 73  7.99360667E-09
  1 106 74  7.99360667E-09
  1 106 75  7.99360667E-09
  1 106 76  7.99360667E-09
  1 106 77  7.99360667E-09
  1 106 78  7.99360667E-09
  1 106 79  7.99360667E-09
  1 106 80  7.99360667E-09
  1 106 81  7.99360667E-09
  1 106 82  7.99360667E-09
  1 106 83  7.99360667E-09
  1 106 84  7.99360667E-09
  1 106 85  7.56923854E-09
  1 106 86  7.56923854E-09
  1 106 87  7.56923854E-09
  1 106 88  7.56923854E-09
  1 106 89  7.56923854E-09
  1 106 90  7.56923854E-09
  1 106 91  7.56923854E-09
  1 106 92  7.56923854E-09
  1 107 16  9.88698695E-09
  1 107 17  9.88698695E-09
  1 107 18  8.23364471E-09
  1 107 19  8.23364471E-09
  1 107 20  8.23364471E-09
  1 107 21  8.23364471E-09
  1 107 22  8.23364471E-09
  1 107 23  8.23364471E-09
  1 107 24  8.23364471E-09
  1 107 25  8.23364471E-09
  1 107 26  8.23364471E-09
  1 107 27  8.23364471E-09
  1 107 28  8.23364471E-09
  1 107 29  8.23364471E-09
  1 107 30  8.23364471E-09
  1 107 31  8.23364471E-09
  1 107 32  8.23364471E-09
  1 107 33  8.23364471E-09
  1 107 34  8.12411490E-09
  1 107 35  8.12411490E-09
  1 107 36  8.12411490E-09
  1 107 37  8.12411490E-09
  1 107 38  8.12411490E-09
  1 107 39  8.12411490E-09
  1 107 40  8.80175880E-09
  1 107 41  8.12411490E-09
  1 107 42  8.12411490E-09
  1 107 43  8.12411490E-09
  1 107 44  9.42919328E-09
  1 107 45  9.42919328E-09
  1 107 46  9.42919328E-09
  1 107 47  9.42919328E-09
  1 107 48  9.42919328E-09
  1 107 49  9.42919328E-09
  1 107 50  9.42919328E-09
  1 107 51  9.42919328E-09
  1 107 52  9.42919328E-09
  1 107 53  9.42919328E-09
  1 107 54  9.42919328E-09
  1 107 55  9.42919328E-09
  1 107 56  9.42919328E-09
  1 107 57  9.42919328E-09
  1 107 58  9.42919328E-09
  1 107 59  9.42919328E-09
  1 107 60  9.42919328E-09
  1 107 61  9.42919328E-09
  1 107 62  9.42919328E-09
  1 107 63  9.42919328E-09
  1 107 64  9.42919328E-09
  1 107 65  9.42919328E-09
  1 107 66  9.42919328E-09
  1 107 67  9.42919328E-09
  1 107 68  9.42919328E-09
  1 107 69  9.42919328E-09
  1 107 70  9.42919328E-09
  1 107 71  7.99360667E-09
  1 107 72  7.99360667E-09
  1 107 73  7.99360667E-09
  1 107 74  7.99360667E-09
  1 107 75  7.99360667E-09
  1 107 76  7.99360667E-09
  1 107 77  7.99360667E-09
  1 107 78  7.99360667E-09
  1 107 79  7.99360667E-09
  1 107 80  7.99360667E-09
  1 107 81  7.99360667E-09
  1 107 82  7.99360667E-09
  1 107 83  7.99360667E-09
  1 107 84  7.56923854E-09
  1 107 85  7.56923854E-09
  1 107 86  7.56923854E-09
  1 107 87  7.56923854E-09
  1 107 88  7.56923854E-09
  1 107 89  7.56923854E-09
  1 107 90  7.56923854E-09
  1 107 91  7.56923854E-09
  1 107 92  7.56923854E-09
  1 108 15  9.88698695E-09
  1 108 16  9.88698695E-09
  1 108 17  9.88698695E-09
  1 108 18  8.23364471E-09
  1 108 19  8.23364471E-09
  1 108 20  8.23364471E-09
  1 108 21  8.23364471E-09
  1 108 22  8.23364471E-09
  1 108 23  8.23364471E-09
  1 108 24  8.23364471E-09
  1 108 25  8.23364471E-09
  1 108 26  8.23364471E-09
  1 108 27  8.23364471E-09
  1 108 28  8.23364471E-09
  1 108 29  8.23364471E-09
  1 108 30  8.23364471E-09
  1 108 31  8.23364471E-09
  1 108 32  8.12411490E-09
  1 108 33  8.12411490E-09
  1 108 34  8.12411490E-09
  1 108 35  8.12411490E-09
  1 108 36  8.12411490E-09
  1 108 37  8.12411490E-09
  1 108 38  8.80175880E-09
  1 108 39  8.80175880E-09
  1 108 40  8.12411490E-09
  1 108 41  8.12411490E-09
  1 108 42  8.12411490E-09
  1 108 43  8.12411490E-09
  1 108 44  9.42919328E-09
  1 108 45  9.42919328E-09
  1 108 46  9.42919328E-09
  1 108 47  9.42919328E-09
  1 108 48  9.42919328E-09
  1 108 49  9.42919328E-09
  1 108 50  9.42919328E-09
  1 108 51  9.42919328E-09
  1 108 52  9.42919328E-09
  1 108 53  9.42919328E-09
  1 108 54  9.42919328E-09
  1 108 55  9.42919328E-09
  1 108 56  9.42919328E-09
  1 108 57  9.42919328E-09
  1 108 58  9.42919328E-09
  1 108 59  9.42919328E-09
  1 108 60  9.42919328E-09
  1 108 61  9.42919328E-09
  1 108 62  9.42919328E-09
  1 108 63  9.42919328E-09
  1 108 64  9.42919328E-09
  1 108 65  9.42919328E-09
  1 108 66  9.42919328E-09
  1 108 67  9.42919328E-09
  1 108 68  9.42919328E-09
  1 108 69  9.42919328E-09
  1 108 70  9.42919328E-09
  1 108 71  7.99360667E-09
  1 108 72  7.99360667E-09
  1 108 73  7.99360667E-09
  1 108 74  7.99360667E-09
  1 108 75  7.99360667E-09
  1 108 76  7.99360667E-09
  1 108 77  7.99360667E-09
  1 108 78  7.99360667E-09
  1 108 79  7.99360667E-09
  1 108 80  7.99360667E-09
  1 108 81  7.99360667E-09
  1 108 82  7.99360667E-09
  1 108 83  7.56923854E-09
  1 108 84  7.56923854E-09
  1 108 85  7.56923854E-09
  1 108 86  7.56923854E-09
  1 108 87  7.56923854E-09
  1 108 88  7.56923854E-09
  1 108 89  7.56923854E-09
  1 108 90  7.56923854E-09
  1 108 91  7.56923854E-09
  1 108 92  7.56923854E-09
  1 109 14  9.88698695E-09
  1 109 15  9.88698695E-09
  1 109 16  9.88698695E-09
  1 109 17  9.88698695E-09
  1 109 18  8.23364471E-09
  1 109 19  8.23364471E-09
  1 109 20  8.23364471E-09
  1 109 21  8.23364471E-09
  1 109 22  8.23364471E-09
  1 109 23  8.23364471E-09
  1 109 24  8.23364471E-09
  1 109 25  8.23364471E-09
  1 109 26  8.23364471E-09
  1 109 27  8.23364471E-09
  1 109 28  8.23364471E-09
  1 109 29  8.12411490E-09
  1 109 30  8.12411490E-09
  1 109 31  8.12411490E-09
  1 109 32  8.12411490E-09
  1 109 33  8.12411490E-09
  1 109 34  8.12411490E-09
  1 109 35  8.12411490E-09
  1 109 36  8.12411490E-09
  1 109 37  8.12411490E-09
  1 109 38  8.12411490E-09
  1 109 39  8.12411490E-09
  1 109 40  8.12411490E-09
  1 109 41  8.12411490E-09
  1 109 42  8.12411490E-09
  1 109 43  8.12411490E-09
  1 109 44  9.42919328E-09
  1 109 45  9.42919328E-09
  1 109 46  9.42919328E-09
  1 109 47  9.42919328E-09
  1 109 48  9.42919328E-09
  1 109 49  9.42919328E-09
  1 109 50  9.42919328E-09
  1 109 51  9.42919328E-09
  1 109 52  9.42919328E-09
  1 109 53  9.42919328E-09
  1 109 54  9.42919328E-09
  1 109 55  9.42919328E-09
  1 109 56  9.42919328E-09
  1 109 57  9.42919328E-09
  1 109 58  9.42919328E-09
  1 109 59  9.42919328E-09
  1 109 60  9.42919328E-09
  1 109 61  9.42919328E-09
  1 109 62  9.42919328E-09
  1 109 63  9.42919328E-09
  1 109 64  9.42919328E-09
  1 109 65  9.42919328E-09
  1 109 66  9.42919328E-09
  1 109 67  9.42919328E-09
  1 109 68  9.42919328E-09
  1 109 69  9.42919328E-09
  1 109 70  9.42919328E-09
  1 109 71  7.99360667E-09
  1 109 72  7.99360667E-09
  1 109 73  7.99360667E-09
  1 109 74  7.99360667E-09
  1 109 75  7.99360667E-09
  1 109 76  7.99360667E-09
  1 109 77  7.99360667E-09
  1 109 78  7.99360667E-09
  1 109 79  7.99360667E-09
  1 109 80  7.99360667E-09
  1 109 81  7.99360667E-09
  1 109 82  7.56923854E-09
  1 109 83  7.56923854E-09
  1 109 84  7.56923854E-09
  1 109 85  7.56923854E-09
  1 109 86  7.56923854E-09
  1 109 87  7.56923854E-09
  1 109 88  7.56923854E-09
  1 109 89  7.56923854E-09
  1 109 90  7.56923854E-09
  1 109 91  7.56923854E-09
  1 109 92  7.56923854E-09
  1 109 93  7.56923854E-09
  1 110 12  1.19040638E-08
  1 110 13  1.19040638E-08
  1 110 14  1.19040638E-08
  1 110 15  1.19040638E-08
  1 110 16  1.19040638E-08
  1 110 17  1.19040638E-08
  1 110 18  1.09781926E-08
  1 110 19  1.09781926E-08
  1 110 20  1.09781926E-08
  1 110 21  1.09781926E-08
  1 110 22  1.09781926E-08
  1 110 23  1.09781926E-08
  1 110 24  1.09781926E-08
  1 110 25  1.09781926E-08
  1 110 26  1.09781926E-08
  1 110 27  1.08321522E-08
  1 110 28  1.08321522E-08
  1 110 29  1.08321522E-08
  1 110 30  1.08321522E-08
  1 110 31  1.08321522E-08
  1 110 32  1.08321522E-08
  1 110 33  1.08321522E-08
  1 110 34  1.08321522E-08
  1 110 35  1.08321522E-08
  1 110 36  1.08321522E-08
  1 110 37  1.08321522E-08
  1 110 38  1.08321522E-08
  1 110 39  1.08321522E-08
  1 110 40  1.08321522E-08
  1 110 41  1.08321522E-08
  1 110 42  1.08321522E-08
  1 110 43  1.08321522E-08
  1 110 44  9.16817780E-09
  1 110 45  9.16817780E-09
  1 110 46  9.16817780E-09
  1 110 47  9.16817780E-09
  1 110 48  9.16817780E-09
  1 110 49  9.16817780E-09
  1 110 50  9.16817780E-09
  1 110 51  9.16817780E-09
  1 110 52  9.16817780E-09
  1 110 53  9.16817780E-09
  1 110 54  9.16817780E-09
  1 110 55  9.16817780E-09
  1 110 56  9.16817780E-09
  1 110 57  9.16817780E-09
  1 110 58  9.16817780E-09
  1 110 59  9.16817780E-09
  1 110 60  9.16817780E-09
  1 110 61  9.16817780E-09
  1 110 62  9.16817780E-09
  1 110 63  9.16817780E-09
  1 110 64  9.16817780E-09
  1 110 65  9.16817780E-09
  1 110 66  9.16817780E-09
  1 110 67  9.16817780E-09
  1 110 68  9.16817780E-09
  1 110 69  9.42919328E-09
  1 110 70  9.16817780E-09
  1 110 71  5.18768732E-09
  1 110 72  5.18768732E-09
  1 110 73  5.18768732E-09
  1 110 74  5.18768732E-09
  1 110 75  5.18768732E-09
  1 110 76  7.99360667E-09
  1 110 77  5.18768732E-09
  1 110 78  5.18768732E-09
  1 110 79  5.18768732E-09
  1 110 80  5.18768732E-09
  1 110 81  7.56923854E-09
  1 110 82  7.56923854E-09
  1 110 83  4.91228157E-09
  1 110 84  7.56923854E-09
  1 110 85  7.56923854E-09
  1 110 86  7.56923854E-09
  1 110 87  7.56923854E-09
  1 110 88  7.56923854E-09
  1 110 89  7.56923854E-09
  1 110 90  7.56923854E-09
  1 110 91  7.56923854E-09
  1 110 92  7.56923854E-09
  1 110 93  7.56923854E-09
  1 111 11  1.19040638E-08
  1 111 12  1.19040638E-08
  1 111 13  1.19040638E-08
  1 111 14  1.19040638E-08
  1 111 15  1.19040638E-08
  1 111 16  1.19040638E-08
  1 111 17  1.19040638E-08
  1 111 18  1.09781926E-08
  1 111 19  1.09781926E-08
  1 111 20  1.09781926E-08
  1 111 21  1.09781926E-08
  1 111 22  1.09781926E-08