BEGIN options
  SAVE_FLOWS
END options

BEGIN dimensions
  MAXBOUND  105
END dimensions

BEGIN period  1
  1 108 70     123.88200764       0.01000000     121.88200764
  1 108 71     123.33801383       0.01000000     121.33801383
  1 109 71     122.57164470       0.01000000     120.57164470
  1 109 72     121.72840998       0.01000000     119.72840998
  1 109 73     120.64975818       0.01000000     118.64975818
  1 108 73     117.70171083       0.01000000     115.70171083
  1 109 74     112.76438749       0.01000000     110.76438749
  1 109 75     108.07489575       0.01000000     106.07489575
  1 109 76     107.13781011       0.01000000     105.13781011
  1 110 76     106.21154541       0.01000000     104.21154541
  1 110 77     104.93931843       0.01000000     102.93931843
  1 109 77     102.40435442       0.01000000     100.40435442
  1 109 78     101.10972985       0.01000000      99.10972985
  1 109 79      99.00000000       0.01000000      97.00000000
  1 109 80      97.48570827       0.01000000      95.48570827
  1 109 81      93.55241144       0.01000000      91.55241144
  1 108 81      92.72743702       0.01000000      90.72743702
  1 108 82      91.64825506       0.01000000      89.64825506
  1 108 83      90.32119016       0.01000000      88.32119016
  1 107 83      88.30682404       0.01000000      86.30682404
  1 107 84      85.90400332       0.01000000      83.90400332
  1 107 85      83.94146807       0.01000000      81.94146807
  1 106 85      82.89977155       0.01000000      80.89977155
  1 106 86      81.06114272       0.01000000      79.06114272
  1 106 87      78.42489769       0.01000000      76.42489769
  1 105 87      77.54206485       0.01000000      75.54206485
  1 106 88      76.32017774       0.01000000      74.32017774
  1 106 89      74.60275439       0.01000000      72.60275439
  1 106 90      71.27908005       0.01000000      69.27908005
  1 105 90      69.00000000       0.01000000      67.00000000
  1 104 90      69.00000000       0.01000000      67.00000000
  1 104 91      68.35370711       0.01000000      66.35370711
  1 103 91      66.90924201       0.01000000      64.90924201
  1 103 92      65.75767170       0.01000000      63.75767170
  1 104 92      64.00000000       0.01000000      62.00000000
  1 104 93      64.00000000       0.01000000      62.00000000
  1 103 93      62.99544743       0.01000000      60.99544743
  1 102 93      58.04615875       0.01000000      56.04615875
  1 102 94      57.04071862       0.01000000      55.04071862
  1 101 93      56.35280803       0.01000000      54.35280803
  1 100 93      55.67204995       0.01000000      53.67204995
  1 100 94      53.17851825       0.01000000      51.17851825
  1 99 94      52.29208636       0.01000000      50.29208636
  1 99 95      51.42821906       0.01000000      49.42821906
  1 98 95      50.38613077       0.01000000      48.38613077
  1 98 96      48.44690978       0.01000000      46.44690978
  1 97 96      47.61222885       0.01000000      45.61222885
  1 97 97      46.95956183       0.01000000      44.95956183
  1 96 97      45.92670849       0.01000000      43.92670849
  1 95 97      42.81036766       0.01000000      40.81036766
  1 94 97      41.45533907       0.01000000      39.45533907
  1 94 98      38.31572209       0.01000000      36.31572209
  1 93 98      37.25699520       0.01000000      35.25699520
  1 93 99      36.20470419       0.01000000      34.20470419
  1 93 100      35.52036258       0.01000000      33.52036258
  1 92 100      33.52225352       0.01000000      31.52225352
  1 92 101      32.90910651       0.01000000      30.90910651
  1 91 101      32.51619782       0.01000000      30.51619782
  1 91 102      31.90753854       0.01000000      29.90753854
  1 91 103      31.19987240       0.01000000      29.19987240
  1 91 104      30.38180524       0.01000000      28.38180524
  1 91 105      29.79768119       0.01000000      27.79768119
  1 90 105      28.62073920       0.01000000      26.62073920
  1 90 106      27.89344472       0.01000000      25.89344472
  1 89 106      27.39368704       0.01000000      25.39368704
  1 89 107      26.80629044       0.01000000      24.80629044
  1 89 108      25.97171613       0.01000000      23.97171613
  1 89 109      25.17908484       0.01000000      23.17908484
  1 89 110      23.43110133       0.01000000      21.43110133
  1 89 111      22.28890444       0.01000000      20.28890444
  1 89 112      21.13897503       0.01000000      19.13897503
  1 89 113      19.95131569       0.01000000      17.95131569
  1 89 114      18.70936281       0.01000000      16.70936281
  1 89 115      17.90937312       0.01000000      15.90937312
  1 90 115      17.23175674       0.01000000      15.23175674
  1 90 116      16.08583518       0.01000000      14.08583518
  1 90 117      15.11962465       0.01000000      13.11962465
  1 91 117      14.50009001       0.01000000      12.50009001
  1 91 118      12.52670519       0.01000000      10.52670519
  1 91 119      11.56964044       0.01000000       9.56964044
  1 90 119      10.91522784       0.01000000       8.91522784
  1 90 120      10.36526373       0.01000000       8.36526373
  1 89 120       8.71015405       0.01000000       6.71015405
  1 89 121       8.18045748       0.01000000       6.18045748
  1 88 121       7.86813013       0.01000000       5.86813013
  1 88 122       7.44572733       0.01000000       5.44572733
  1 88 123       6.83384955       0.01000000       4.83384955
  1 88 124       6.31015195       0.01000000       4.31015195
  1 88 125       5.73430884       0.01000000       3.73430884
  1 88 126       5.15542915       0.01000000       3.15542915
  1 88 127       4.62405733       0.01000000       2.62405733
  1 88 128       4.06791475       0.01000000       2.06791475
  1 88 129       3.48043112       0.01000000       1.48043112
  1 88 130       3.14675395       0.01000000       1.14675395
  1 87 130       2.75661403       0.01000000       0.75661403
  1 87 131       2.33769961       0.01000000       0.33769961
  1 86 131       1.92430631       0.01000000      -0.07569369
  1 86 132       1.52004727       0.01000000      -0.47995273
  1 85 132       1.11489793       0.01000000      -0.88510207
  1 85 133       0.70508706       0.01000000      -1.29491294
  1 84 133       0.30043766       0.01000000      -1.69956234
  1 84 134      -0.11243249       0.01000000      -2.11243249
  1 83 134      -0.51853374       0.01000000      -2.51853374
  1 83 135      -0.92818284       0.01000000      -2.92818284
  1 88 139       0.00000000       0.01000000      -2.00000000
END period  1

