BEGIN options
  SAVE_FLOWS
END options

BEGIN dimensions
  MAXBOUND  105
END dimensions

BEGIN period  1
  1 108 70     123.00000000
  1 108 71     123.00000000
  1 109 71     123.00000000
  1 109 72     122.22187567
  1 109 73     120.55279594
  1 108 73     116.70171083
  1 109 74     111.76438749
  1 109 75     107.22907979
  1 109 76     106.44817509
  1 110 76     105.67628784
  1 110 77     104.61609869
  1 109 77     102.25544303
  1 109 78     100.63716231
  1 109 79      98.00000000
  1 109 80      96.48570827
  1 109 81      92.55241144
  1 108 81      91.72743702
  1 108 82      90.64825506
  1 108 83      89.32119016
  1 107 83      87.30682404
  1 107 84      84.90400332
  1 107 85      82.94146807
  1 106 85      81.89977155
  1 106 86      80.06114272
  1 106 87      77.58921264
  1 105 87      76.95861775
  1 106 88      76.08584124
  1 106 89      74.85911028
  1 106 90      71.79846674
  1 105 90      68.00000000
  1 104 90      68.00000000
  1 104 91      67.35370711
  1 103 91      65.90924201
  1 103 92      64.75767170
  1 104 92      63.00000000
  1 104 93      63.00000000
  1 103 93      61.99544743
  1 102 93      57.04615875
  1 102 94      56.04071862
  1 101 93      55.35280803
  1 100 93      54.67204995
  1 100 94      52.17851825
  1 99 94      51.29208636
  1 99 95      50.42821906
  1 98 95      49.38613077
  1 98 96      47.44690978
  1 97 96      46.61222885
  1 97 97      45.95956183
  1 96 97      44.92670849
  1 95 97      41.81036766
  1 94 97      40.45533907
  1 94 98      37.31572209
  1 93 98      36.25699520
  1 93 99      35.20470419
  1 93 100      34.52036258
  1 92 100      32.52225352
  1 92 101      31.90910651
  1 91 101      31.51619782
  1 91 102      30.90753854
  1 91 103      30.19987240
  1 91 104      29.38180524
  1 91 105      28.79768119
  1 90 105      27.62073920
  1 90 106      26.89344472
  1 89 106      26.39368704
  1 89 107      25.80629044
  1 89 108      24.97171613
  1 89 109      24.17908484
  1 89 110      22.43110133
  1 89 111      21.28890444
  1 89 112      20.13897503
  1 89 113      18.95131569
  1 89 114      17.70936281
  1 89 115      16.90937312
  1 90 115      16.23175674
  1 90 116      15.08583518
  1 90 117      14.11962465
  1 91 117      13.50009001
  1 91 118      11.52670519
  1 91 119      10.56964044
  1 90 119       9.91522784
  1 90 120       9.36526373
  1 89 120       7.71015405
  1 89 121       7.18045748
  1 88 121       6.86813013
  1 88 122       6.44572733
  1 88 123       5.83384955
  1 88 124       5.31015195
  1 88 125       4.73430884
  1 88 126       4.15542915
  1 88 127       3.62405733
  1 88 128       3.06791475
  1 88 129       2.48043112
  1 88 130       2.14675395
  1 87 130       1.75661403
  1 87 131       1.33769961
  1 86 131       0.92430631
  1 86 132       0.52004727
  1 85 132       0.11489793
  1 85 133      -0.29491294
  1 84 133      -0.69956234
  1 84 134      -1.11243249
  1 83 134      -1.51853374
  1 83 135      -1.92818284
  1 88 139       0.00000000
END period  1

