BEGIN options
  SAVE_FLOWS
END options

BEGIN dimensions
  MAXBOUND  66
END dimensions

BEGIN period  1
  1 72 44      99.69990828
  1 72 45      99.08719911
  1 73 45      97.88291874
  1 73 46      96.00219432
  1 72 46      94.40831587
  1 73 47      92.88666144
  1 73 48      90.91845262
  1 73 49      88.95303249
  1 73 50      87.13044316
  1 73 51      85.79711015
  1 72 51      84.79844639
  1 72 52      83.06300754
  1 72 53      81.73740584
  1 71 53      80.60861631
  1 71 54      78.76676512
  1 70 54      77.79141703
  1 70 55      77.57209290
  1 71 55      76.53692758
  1 71 56      74.33862362
  1 70 56      72.93926469
  1 70 57      71.90392244
  1 69 57      70.13399026
  1 69 58      67.81407436
  1 68 58      65.63806216
  1 68 59      64.21306185
  1 67 59      62.22364829
  1 66 59      60.73321432
  1 66 60      59.39936112
  1 65 60      57.70143230
  1 65 61      56.52235590
  1 64 61      54.85667147
  1 63 61      52.78339400
  1 63 62      51.65724752
  1 62 62      50.45133341
  1 62 63      48.92717170
  1 61 63      47.79886268
  1 61 64      46.23794245
  1 61 65      44.33272961
  1 61 66      43.01504322
  1 60 66      41.86420866
  1 60 67      40.17083093
  1 59 67      39.18339894
  1 59 68      38.14953532
  1 59 69      36.40298619
  1 59 70      34.65809463
  1 59 71      33.09909434
  1 60 71      32.16655403
  1 60 72      30.89923450
  1 60 73      28.98693350
  1 61 73      28.03183357
  1 61 74      27.03646297
  1 61 75      25.65250749
  1 60 75      24.05694529
  1 59 75      22.88508724
  1 59 76      21.72793469
  1 59 77      19.68990827
  1 59 78      17.84843274
  1 59 79      15.99436798
  1 59 80      14.15139730
  1 59 81      12.43017927
  1 58 81      11.37136114
  1 58 82      10.08234760
  1 57 82       8.72954004
  1 57 83       7.45846046
  1 56 83       6.11534085
  1 56 84       4.83484828
END period  1

