BEGIN options
  SAVE_FLOWS
END options

BEGIN dimensions
  MAXBOUND  108
END dimensions

BEGIN period  1
  1 108 72      99.60373012
  1 108 73      98.99102096
  1 109 73      98.16122391
  1 109 74      97.06752265
  1 108 74      96.16110111
  1 108 75      95.55628415
  1 109 75      94.66575922
  1 109 76      93.40315984
  1 109 77      92.47027503
  1 110 77      91.89721213
  1 110 78      91.16154754
  1 110 79      90.56472388
  1 109 79      89.86637879
  1 109 80      88.64876195
  1 109 81      87.51744213
  1 109 82      86.41079504
  1 109 83      85.61818158
  1 108 83      84.95815844
  1 108 84      83.93716016
  1 108 85      82.96080240
  1 107 85      82.20057417
  1 107 86      81.17676613
  1 106 86      80.48709520
  1 106 87      79.75333518
  1 106 88      78.50629492
  1 106 89      77.53332606
  1 105 89      76.91088567
  1 106 90      76.06113034
  1 106 91      74.86901708
  1 106 92      73.68087409
  1 105 92      72.36141876
  1 104 92      71.32181321
  1 104 93      70.61623196
  1 103 93      69.82626970
  1 103 94      69.18665364
  1 104 94      68.61240912
  1 104 95      67.98611732
  1 103 95      67.03467150
  1 102 95      65.45659577
  1 102 96      64.37263148
  1 101 95      63.51538473
  1 101 96      62.82937750
  1 100 96      61.87867708
  1 99 96      60.93156833
  1 99 97      60.00894054
  1 98 97      58.94607205
  1 98 98      58.07600834
  1 97 98      57.24259399
  1 97 99      56.52235590
  1 96 99      55.41426362
  1 96 100      54.68397235
  1 95 100      54.45293270
  1 95 99      53.75498734
  1 94 100      52.30228838
  1 93 100      51.28832684
  1 93 101      50.39349511
  1 93 102      49.59928156
  1 92 102      48.87668533
  1 92 103      47.92302333
  1 91 103      47.27681169
  1 91 104      46.47467797
  1 91 105      45.40330949
  1 91 106      44.20501030
  1 91 107      43.13725006
  1 90 107      42.41985186
  1 90 108      41.42380307
  1 90 109      40.72511628
  1 89 109      40.11442769
  1 89 110      38.96180539
  1 89 111      37.87680974
  1 89 112      36.81169103
  1 89 113      35.74491357
  1 89 114      34.67506513
  1 89 115      33.58208243
  1 89 116      32.45134996
  1 89 117      31.39502520
  1 90 117      30.79830383
  1 90 118      30.02653944
  1 90 119      28.80542042
  1 90 120      28.16802851
  1 91 120      27.58199255
  1 91 121      26.51036166
  1 91 122      25.57624720
  1 90 122      24.53033714
  1 89 122      23.70370635
  1 89 123      22.90002951
  1 89 124      21.95543549
  1 88 124      21.22904984
  1 88 125      20.19767180
  1 88 126      19.06528986
  1 88 127      17.99582839
  1 88 128      16.81823953
  1 88 129      15.64440449
  1 88 130      14.56994530
  1 88 131      13.43170053
  1 88 132      12.23242108
  1 87 132      11.61295568
  1 87 133      10.78381719
  1 87 134       9.93245120
  1 86 134       9.09330700
  1 86 135       8.25392831
  1 85 135       7.43200408
  1 85 136       6.58109791
  1 84 136       5.75917368
  1 84 137       4.90191539
  1 83 137       4.07708752
  1 83 138       3.22651724
  1 88 142      -8.83171119
END period  1

