BEGIN options
  SAVE_FLOWS
END options

BEGIN dimensions
  MAXBOUND  175
END dimensions

BEGIN period  1
  1 180 117     123.75781487
  1 180 118     123.14822952
  1 181 118     122.51152424
  1 181 119     121.90861431
  1 181 120     121.23301240
  1 181 121     120.54724108
  1 180 121     117.88558313
  1 181 122     116.01130218
  1 181 123     115.11426009
  1 182 123     113.30139532
  1 182 124     111.70997268
  1 182 125     108.53412101
  1 182 126     107.59272570
  1 182 127     106.66799886
  1 182 128     105.55577359
  1 182 129     103.20334907
  1 182 130     101.95856879
  1 181 130     101.10544252
  1 181 131      99.00000000
  1 181 132      99.00000000
  1 181 133      97.95690147
  1 181 134      95.90377722
  1 181 135      93.78319143
  1 180 135      93.10813335
  1 180 136      92.16430979
  1 180 137      91.07509845
  1 179 137      90.46069152
  1 179 138      88.30417827
  1 179 139      87.52524211
  1 178 139      86.92345330
  1 178 140      86.00798608
  1 177 140      85.40896597
  1 177 141      83.22747681
  1 177 142      82.38359565
  1 176 142      81.64185395
  1 176 143      80.34861636
  1 176 144      78.77646991
  1 175 144      78.36751843
  1 175 145      78.12040629
  1 176 145      77.68351374
  1 176 146      76.94363632
  1 177 146      76.47942714
  1 177 147      75.97724834
  1 177 148      75.19232607
  1 177 149      73.23198052
  1 176 149      71.65232402
  1 176 150      70.80382250
  1 175 150      69.00000000
  1 174 150      69.00000000
  1 173 150      69.00000000
  1 173 151      69.00000000
  1 172 151      68.13031176
  1 172 152      66.46942834
  1 172 153      64.00000000
  1 172 154      64.00000000
  1 172 155      64.00000000
  1 171 155      62.22504844
  1 170 155      58.83849672
  1 170 154      58.41936814
  1 169 154      58.03388690
  1 169 155      57.30401783
  1 169 156      56.64738002
  1 168 155      56.19955182
  1 167 155      55.61809520
  1 167 156      55.19938474
  1 166 156      53.41618045
  1 166 157      52.65569181
  1 165 157      52.26596543
  1 165 158      51.49294357
  1 164 158      50.57037906
  1 164 159      50.08571086
  1 163 159      48.62540091
  1 163 160      48.10992021
  1 162 160      47.55671368
  1 161 160      47.11484193
  1 161 161      46.70856023
  1 160 161      46.09055331
  1 160 162      45.67147023
  1 159 162      45.11423659
  1 158 162      43.24881056
  1 157 162      41.67217438
  1 157 163      40.73232563
  1 156 163      38.35101675
  1 155 163      37.35721928
  1 155 164      36.44698922
  1 154 164      35.84634451
  1 154 165      35.19773173
  1 154 166      33.86088639
  1 153 166      33.54059214
  1 153 167      33.12654038
  1 152 167      32.79927116
  1 152 168      32.45296191
  1 152 169      31.96680813
  1 152 170      31.49631025
  1 152 171      31.02257402
  1 152 172      30.52897875
  1 152 173      30.13921083
  1 151 173      29.81949583
  1 151 174      29.39556546
  1 150 174      28.91815404
  1 150 175      28.52658975
  1 150 176      28.15154879
  1 149 176      27.82494879
  1 149 177      27.34391900
  1 148 177      27.05986373
  1 148 178      26.72619299
  1 148 179      26.20280151
  1 148 180      25.70520595
  1 148 181      25.21799475
  1 148 182      24.73019714
  1 148 183      24.00000000
  1 148 184      23.63478146
  1 148 185      22.90343551
  1 148 186      22.51435952
  1 147 186      22.14823212
  1 147 187      21.48298245
  1 148 187      21.10527558
  1 148 188      20.65941658
  1 148 189      19.87897059
  1 148 190      19.22863840
  1 149 190      18.81723767
  1 149 191      18.25540928
  1 149 192      17.56023426
  1 150 192      17.09416838
  1 150 193      16.51889410
  1 150 194      15.73671242
  1 150 195      15.25749035
  1 151 195      14.85719167
  1 151 196      14.15298765
  1 151 197      12.58800213
  1 151 198      11.73701916
  1 151 199      11.16360633
  1 150 199      10.55020424
  1 149 199       8.79597106
  1 148 199       8.57846592
  1 148 200       8.37780028
  1 148 201       8.06939394
  1 147 201       7.89514666
  1 147 202       7.64256331
  1 147 203       7.41860904
  1 146 203       7.20978715
  1 146 204       6.87330676
  1 146 205       6.57099132
  1 146 206       6.27042669
  1 146 207       5.96718773
  1 146 208       5.62270589
  1 146 209       5.42121644
  1 147 209       5.26181857
  1 147 210       4.96163778
  1 147 211       4.65775973
  1 147 212       4.35226591
  1 147 213       4.02946435
  1 147 214       3.84999024
  1 146 214       3.68111989
  1 146 215       3.34830260
  1 146 216       3.14111882
  1 145 216       2.92371715
  1 145 217       2.67452803
  1 144 217       2.43920018
  1 144 218       2.20994636
  1 143 218       1.97244890
  1 143 219       1.74046701
  1 142 219       1.50583980
  1 142 220       1.27110651
  1 141 220       1.03863249
  1 141 221       0.80319316
  1 140 221       0.57071914
  1 140 222       0.33527981
  1 139 222       0.10762738
  1 139 223      -0.12919705
  1 138 223      -0.36835336
  1 138 224      -0.60483466
  1 146 231       0.00000000
  1 146 232       0.00000000
  1 146 233       0.00000000
END period  1

