BEGIN options
  SAVE_FLOWS
END options

BEGIN dimensions
  MAXBOUND  100
END dimensions

BEGIN period  1
  1 108 66      99.69990828
  1 108 67      99.08719911
  1 109 67      98.18575128
  1 109 68      97.03291367
  1 108 68      95.86408948
  1 109 69      94.53138571
  1 109 70      93.20650823
  1 109 71      92.34886058
  1 110 71      91.72692686
  1 110 72      90.93911173
  1 109 72      90.18982730
  1 109 73      89.26779310
  1 109 74      88.04328005
  1 109 75      86.81997889
  1 109 76      85.79711015
  1 108 76      85.08805878
  1 108 77      84.19383092
  1 108 78      83.08757282
  1 107 78      82.24636182
  1 107 79      81.22255378
  1 106 79      80.47331495
  1 106 80      79.67541583
  1 106 81      78.41876933
  1 105 81      77.79141703
  1 105 82      77.57209290
  1 106 82      76.86883891
  1 106 83      75.64092501
  1 106 84      74.02480322
  1 105 84      72.93926469
  1 105 85      72.24627028
  1 104 85      70.96284310
  1 103 85      70.06909566
  1 103 86      69.42947960
  1 104 86      68.80651457
  1 104 87      68.18022276
  1 103 87      67.03467150
  1 102 87      65.63806216
  1 102 88      64.55409787
  1 101 88      63.48996104
  1 100 88      61.95191713
  1 100 89      61.02664040
  1 99 89      60.03077257
  1 98 89      59.06509589
  1 98 90      58.19503217
  1 97 90      57.24259399
  1 97 91      56.52235590
  1 96 91      55.19724990
  1 95 91      53.76901328
  1 94 91      53.02222994
  1 94 92      52.25345039
  1 93 92      51.16591905
  1 93 93      50.12652351
  1 92 93      49.41193787
  1 92 94      48.56985181
  1 92 95      47.65896969
  1 91 95      47.04056651
  1 91 96      45.94854212
  1 91 97      44.73193864
  1 91 98      43.41425224
  1 90 98      42.62452916
  1 90 99      41.76076564
  1 90 100      40.85740154
  1 89 100      40.18007195
  1 89 101      39.03926522
  1 89 102      37.85311698
  1 89 103      36.69354070
  1 89 104      35.53127720
  1 89 105      34.36633442
  1 89 106      33.16319225
  1 89 107      31.90217391
  1 89 108      31.08700301
  1 90 108      30.39608980
  1 90 109      29.23793289
  1 90 110      28.34502313
  1 91 110      27.71174130
  1 91 111      26.71637070
  1 91 112      25.65250749
  1 90 112      24.53033714
  1 89 112      23.73759617
  1 89 113      22.90598410
  1 89 114      21.92750026
  1 88 114      21.12856793
  1 88 115      19.97913725
  1 88 116      18.78187304
  1 88 117      17.55911329
  1 88 118      16.28653941
  1 88 119      15.07119065
  1 88 120      13.85658254
  1 88 121      12.57325090
  1 88 122      11.77446956
  1 87 122      10.93470810
  1 87 123      10.06489986
  1 86 123       9.14874533
  1 86 124       8.30936664
  1 85 124       7.41373910
  1 85 125       6.56283292
  1 84 125       5.67182477
  1 84 126       4.81456647
  1 83 126       3.94612484
  1 88 131      -9.44537635
END period  1

