BEGIN options
  SAVE_FLOWS
END options

BEGIN dimensions
  MAXBOUND  105
END dimensions

BEGIN period  1
  1 108 70     123.88200764
  1 108 71     123.33801383
  1 109 71     122.57164470
  1 109 72     121.72840998
  1 109 73     120.64975818
  1 108 73     117.70171083
  1 109 74     112.76438749
  1 109 75     108.22907979
  1 109 76     107.44817509
  1 110 76     106.67628784
  1 110 77     105.61609869
  1 109 77     103.25544303
  1 109 78     101.63716231
  1 109 79      99.00000000
  1 109 80      97.48570827
  1 109 81      93.55241144
  1 108 81      92.72743702
  1 108 82      91.64825506
  1 108 83      90.32119016
  1 107 83      88.30682404
  1 107 84      85.90400332
  1 107 85      83.94146807
  1 106 85      82.89977155
  1 106 86      81.06114272
  1 106 87      78.58921264
  1 105 87      77.95861775
  1 106 88      77.08584124
  1 106 89      75.85911028
  1 106 90      72.79846674
  1 105 90      69.00000000
  1 104 90      69.00000000
  1 104 91      68.35370711
  1 103 91      66.90924201
  1 103 92      65.75767170
  1 104 92      64.00000000
  1 104 93      64.00000000
  1 103 93      62.99544743
  1 102 93      58.04615875
  1 102 94      57.04071862
  1 101 93      56.35280803
  1 100 93      55.67204995
  1 100 94      53.17851825
  1 99 94      52.29208636
  1 99 95      51.42821906
  1 98 95      50.38613077
  1 98 96      48.44690978
  1 97 96      47.61222885
  1 97 97      46.95956183
  1 96 97      45.92670849
  1 95 97      42.81036766
  1 94 97      41.45533907
  1 94 98      38.31572209
  1 93 98      37.25699520
  1 93 99      36.20470419
  1 93 100      35.52036258
  1 92 100      33.52225352
  1 92 101      32.90910651
  1 91 101      32.51619782
  1 91 102      31.90753854
  1 91 103      31.19987240
  1 91 104      30.38180524
  1 91 105      29.79768119
  1 90 105      28.62073920
  1 90 106      27.89344472
  1 89 106      27.39368704
  1 89 107      26.80629044
  1 89 108      25.97171613
  1 89 109      25.17908484
  1 89 110      23.43110133
  1 89 111      22.28890444
  1 89 112      21.13897503
  1 89 113      19.95131569
  1 89 114      18.70936281
  1 89 115      17.90937312
  1 90 115      17.23175674
  1 90 116      16.08583518
  1 90 117      15.11962465
  1 91 117      14.50009001
  1 91 118      12.52670519
  1 91 119      11.56964044
  1 90 119      10.91522784
  1 90 120      10.36526373
  1 89 120       8.71015405
  1 89 121       8.18045748
  1 88 121       7.86813013
  1 88 122       7.44572733
  1 88 123       6.83384955
  1 88 124       6.31015195
  1 88 125       5.73430884
  1 88 126       5.15542915
  1 88 127       4.62405733
  1 88 128       4.06791475
  1 88 129       3.48043112
  1 88 130       3.14675395
  1 87 130       2.75661403
  1 87 131       2.33769961
  1 86 131       1.92430631
  1 86 132       1.52004727
  1 85 132       1.11489793
  1 85 133       0.70508706
  1 84 133       0.30043766
  1 84 134      -0.11243249
  1 83 134      -0.51853374
  1 83 135      -0.92818284
  1 88 139       0.00000000
END period  1

