BEGIN options
  SAVE_FLOWS
END options

BEGIN dimensions
  MAXBOUND  134
END dimensions

BEGIN period  1
  1 144 88     123.00000000
  1 144 89     123.00000000
  1 145 89     123.00000000
  1 145 90     122.28582284
  1 145 91     120.74117437
  1 144 91     116.58439041
  1 145 92     112.16076709
  1 145 93     110.76093617
  1 146 93     109.95011343
  1 146 94     107.40137645
  1 146 95     106.22899805
  1 146 96     105.06534553
  1 145 96     104.29776980
  1 145 97     102.19983649
  1 145 98     100.53372446
  1 145 99      98.00000000
  1 145 100      96.71251181
  1 145 101      92.50839471
  1 144 101      91.88050391
  1 144 102      91.21637214
  1 144 103      90.03990610
  1 144 104      89.36622410
  1 143 104      87.06326923
  1 143 105      85.86136041
  1 142 105      84.98346083
  1 142 106      82.27545272
  1 141 106      81.27442025
  1 141 107      80.14623334
  1 141 108      77.58617341
  1 140 108      77.06499147
  1 140 109      76.82534704
  1 141 109      76.26538428
  1 141 110      75.31689944
  1 142 110      74.74578920
  1 142 111      74.19366144
  1 142 112      72.41056049
  1 141 112      70.87464247
  1 140 112      69.71377264
  1 140 113      68.00000000
  1 139 113      68.00000000
  1 138 113      67.31925909
  1 138 114      65.71500732
  1 138 115      63.00000000
  1 138 116      63.00000000
  1 137 116      61.94887990
  1 136 116      57.28570979
  1 136 117      56.36545720
  1 135 117      55.63767638
  1 134 117      54.58146619
  1 133 117      52.51383269
  1 133 118      51.81637096
  1 132 118      51.39815788
  1 132 119      50.68800593
  1 131 119      49.73676733
  1 131 120      49.19343781
  1 130 120      47.48547724
  1 130 121      46.93108302
  1 129 121      46.40726684
  1 128 121      45.62756925
  1 128 122      45.13011722
  1 127 122      44.48282204
  1 126 122      41.53127061
  1 125 122      37.49851909
  1 125 123      36.84697199
  1 124 123      36.04464686
  1 124 124      35.10756149
  1 123 124      34.44739388
  1 123 125      32.69449965
  1 122 125      32.28175717
  1 122 126      31.80737179
  1 122 127      31.14017882
  1 122 128      30.53565817
  1 122 129      29.92360748
  1 122 130      29.51909941
  1 121 130      29.11431915
  1 121 131      28.60804410
  1 120 131      27.79409877
  1 120 132      27.27225744
  1 119 132      26.87794686
  1 119 133      26.44155867
  1 119 134      25.86507654
  1 118 134      25.53694773
  1 118 135      25.12073079
  1 118 136      24.51198425
  1 118 137      23.90729152
  1 118 138      22.67399596
  1 118 139      22.02014329
  1 118 140      21.36511452
  1 118 141      20.68956488
  1 118 142      20.17670282
  1 119 142      19.82648023
  1 119 143      19.27425356
  1 119 144      18.66714768
  1 120 144      18.26998977
  1 120 145      17.74858570
  1 120 146      17.07968197
  1 121 146      16.72904521
  1 121 147      16.32437433
  1 121 148      15.62530270
  1 121 149      14.94662534
  1 120 149      14.26610929
  1 120 150      13.89483256
  1 119 150      13.38006823
  1 118 150      12.87347324
  1 118 151      12.47694216
  1 118 152      11.84096012
  1 117 152      11.37063579
  1 117 153      10.80487940
  1 117 154      10.12471252
  1 117 155       9.47449241
  1 117 156       8.77515834
  1 117 157       8.03897412
  1 117 158       7.34937630
  1 117 159       6.99776789
  1 118 159       6.66648689
  1 118 160       6.13557070
  1 117 160       5.77582852
  1 117 161       5.27292152
  1 117 162       4.67453203
  1 116 162       4.24821820
  1 116 163       3.75152123
  1 115 163       3.25180420
  1 115 164       2.78286499
  1 114 164       2.26915595
  1 114 165       1.79503285
  1 113 165       1.29170759
  1 113 166       0.81362933
  1 112 166       0.31078604
  1 112 167      -0.16729221
  1 111 167      -0.67461626
  1 111 168      -1.15579088
  1 110 168      -1.65558088
  1 117 174       0.00000000
  1 117 175       0.00000000
END period  1

