BEGIN options
  SAVE_FLOWS
END options

BEGIN dimensions
  MAXBOUND  100
END dimensions

BEGIN period  1
  1 108 66     123.00000000
  1 108 67     123.00000000
  1 109 67     123.00000000
  1 109 68     121.79364400
  1 108 68     116.86543249
  1 109 69     111.62650166
  1 109 70     107.41870363
  1 109 71     106.58360270
  1 110 71     105.97801901
  1 110 72     105.21091477
  1 109 72     104.48132829
  1 109 73     101.77647655
  1 109 74      98.00000000
  1 109 75      96.53823795
  1 109 76      92.50839471
  1 108 76      91.68782128
  1 108 77      90.65294616
  1 108 78      89.37269194
  1 107 78      87.15774775
  1 107 79      82.15388209
  1 106 79      81.22008142
  1 106 80      80.22563383
  1 106 81      77.55111230
  1 105 81      77.01886748
  1 105 82      76.83279319
  1 106 82      76.23615349
  1 106 83      75.19439305
  1 106 84      71.54154274
  1 105 84      69.91002196
  1 105 85      68.00000000
  1 104 85      66.83698912
  1 103 85      65.36382354
  1 103 86      64.30954321
  1 104 86      63.00000000
  1 104 87      63.00000000
  1 103 87      61.76347913
  1 102 87      57.32700945
  1 102 88      56.29348456
  1 101 88      55.27886453
  1 100 88      52.21629264
  1 100 89      51.36521874
  1 99 89      50.44921481
  1 98 89      49.56098085
  1 98 90      47.30514390
  1 97 90      46.50490736
  1 97 91      45.89976484
  1 96 91      44.78641359
  1 95 91      41.81036766
  1 94 91      40.53749205
  1 94 92      37.30812721
  1 93 92      36.26299608
  1 93 93      35.26412405
  1 92 93      34.57739836
  1 92 94      32.41640056
  1 92 95      31.75133590
  1 91 95      31.29981962
  1 91 96      30.50249709
  1 91 97      29.61421532
  1 91 98      28.65212963
  1 90 98      27.93351144
  1 90 99      27.37832283
  1 90 100      26.79768074
  1 89 100      26.36232353
  1 89 101      25.62906392
  1 89 102      24.86666080
  1 89 103      24.12133697
  1 89 104      22.55909347
  1 89 105      21.67704317
  1 89 106      20.76606976
  1 89 107      19.81127472
  1 89 108      19.19405836
  1 90 108      18.67092520
  1 90 109      17.79401292
  1 90 110      17.11793566
  1 91 110      16.63843879
  1 91 111      15.88478209
  1 91 112      15.07926540
  1 90 112      14.22960076
  1 89 112      13.62936750
  1 89 113      12.99970252
  1 89 114      12.25883184
  1 88 114      11.65391071
  1 88 115      10.78360559
  1 88 116       9.87708275
  1 88 117       8.95125565
  1 88 118       7.98771118
  1 88 119       7.06749541
  1 88 120       6.14784042
  1 88 121       5.17615059
  1 88 122       4.57134379
  1 87 122       3.93550841
  1 87 123       3.27692275
  1 86 123       2.58324544
  1 86 124       1.94769987
  1 85 124       1.26956482
  1 85 125       0.62529108
  1 84 125      -0.04934635
  1 84 126      -0.69842967
  1 83 126      -1.35598059
  1 88 131       0.00000000
END period  1

