BEGIN options
  SAVE_FLOWS
END options

BEGIN dimensions
  MAXBOUND  130
END dimensions

BEGIN period  1
  1 140 57     124.48642296       0.00500000     122.48642296
  1 140 58     123.93324442       0.00500000     121.93324442
  1 141 58     122.88379036       0.00500000     120.88379036
  1 141 59     119.21445180       0.00500000     117.21445180
  1 140 59     118.21629308       0.00500000     116.21629308
  1 140 60     117.94791297       0.00500000     115.94791297
  1 141 60     117.19189907       0.00500000     115.19189907
  1 142 60     116.33229732       0.00500000     114.33229732
  1 142 61     113.77484728       0.00500000     111.77484728
  1 142 62     109.05321104       0.00500000     107.05321104
  1 142 63     107.20627912       0.00500000     105.20627912
  1 142 64     103.23693450       0.00500000     101.23693450
  1 142 65     102.12946141       0.00500000     100.12946141
  1 141 65     101.50447247       0.00500000      99.50447247
  1 141 66     100.00000000       0.00500000      98.00000000
  1 141 67      98.81146761       0.00500000      96.81146761
  1 141 68      94.25664037       0.00500000      92.25664037
  1 140 68      93.44319424       0.00500000      91.44319424
  1 140 69      92.80611291       0.00500000      90.80611291
  1 141 69      92.05364269       0.00500000      90.05364269
  1 140 70      91.31961330       0.00500000      89.31961330
  1 139 70      89.21950470       0.00500000      87.21950470
  1 139 71      87.08083079       0.00500000      85.08083079
  1 138 71      84.81535229       0.00500000      82.81535229
  1 138 72      83.76754469       0.00500000      81.76754469
  1 138 73      82.80472141       0.00500000      80.80472141
  1 137 73      82.07769943       0.00500000      80.07769943
  1 137 74      79.36790876       0.00500000      77.36790876
  1 138 74      78.67537273       0.00500000      76.67537273
  1 138 75      77.91537765       0.00500000      75.91537765
  1 138 76      76.59070744       0.00500000      74.59070744
  1 138 77      73.68718777       0.00500000      71.68718777
  1 137 77      69.00000000       0.00500000      67.00000000
  1 136 77      69.00000000       0.00500000      67.00000000
  1 135 77      69.00000000       0.00500000      67.00000000
  1 135 78      67.91088103       0.00500000      65.91088103
  1 134 78      66.76062922       0.00500000      64.76062922
  1 135 79      65.00000000       0.00500000      63.00000000
  1 135 80      65.00000000       0.00500000      63.00000000
  1 134 80      64.01614282       0.00500000      62.01614282
  1 133 80      59.21206058       0.00500000      57.21206058
  1 133 81      58.33625404       0.00500000      56.33625404
  1 132 81      58.17098833       0.00500000      56.17098833
  1 132 80      57.65671912       0.00500000      55.65671912
  1 131 80      56.99736912       0.00500000      54.99736912
  1 131 81      56.47237282       0.00500000      54.47237282
  1 130 81      54.17744943       0.00500000      52.17744943
  1 130 82      52.84062223       0.00500000      50.84062223
  1 129 82      51.60960871       0.00500000      49.60960871
  1 128 82      50.74944893       0.00500000      48.74944893
  1 128 83      48.45264607       0.00500000      46.45264607
  1 127 83      47.70284383       0.00500000      45.70284383
  1 127 84      47.18634791       0.00500000      45.18634791
  1 126 84      46.32968018       0.00500000      44.32968018
  1 125 84      45.45573343       0.00500000      43.45573343
  1 125 85      44.95576474       0.00500000      42.95576474
  1 124 84      43.07950941       0.00500000      41.07950941
  1 124 85      41.80343533       0.00500000      39.80343533
  1 123 85      38.33073397       0.00500000      36.33073397
  1 122 85      37.37436491       0.00500000      35.37436491
  1 122 86      36.42221761       0.00500000      34.42221761
  1 121 86      35.69172918       0.00500000      33.69172918
  1 121 87      33.51801316       0.00500000      31.51801316
  1 121 88      33.02209177       0.00500000      31.02209177
  1 120 88      32.59269172       0.00500000      30.59269172
  1 120 89      31.82305222       0.00500000      29.82305222
  1 120 90      31.10914800       0.00500000      29.10914800
  1 120 91      30.40414637       0.00500000      28.40414637
  1 119 91      29.96432744       0.00500000      27.96432744
  1 119 92      28.68666860       0.00500000      26.68666860
  1 118 92      28.34240785       0.00500000      26.34240785
  1 118 93      27.98154689       0.00500000      25.98154689
  1 118 94      27.59831826       0.00500000      25.59831826
  1 117 94      27.30527168       0.00500000      25.30527168
  1 117 95      26.80043305       0.00500000      24.80043305
  1 117 96      26.27980249       0.00500000      24.27980249
  1 117 97      25.76848306       0.00500000      23.76848306
  1 117 98      24.43129760       0.00500000      22.43129760
  1 117 99      23.29188496       0.00500000      21.29188496
  1 117 100      22.12756269       0.00500000      20.12756269
  1 117 101      20.92266015       0.00500000      18.92266015
  1 117 102      19.93591108       0.00500000      17.93591108
  1 118 102      19.30061775       0.00500000      17.30061775
  1 118 103      18.34049125       0.00500000      16.34049125
  1 118 104      17.48553009       0.00500000      15.48553009
  1 119 104      16.88554117       0.00500000      14.88554117
  1 119 105      15.81615370       0.00500000      13.81615370
  1 119 106      13.36487644       0.00500000      11.36487644
  1 119 107      12.10901940       0.00500000      10.10901940
  1 118 107      10.85381248       0.00500000       8.85381248
  1 117 107       9.93685826       0.00500000       7.93685826
  1 117 108       9.45077841       0.00500000       7.45077841
  1 117 109       8.91023301       0.00500000       6.91023301
  1 116 109       8.43464010       0.00500000       6.43464010
  1 116 110       7.92134341       0.00500000       5.92134341
  1 115 110       7.53010670       0.00500000       5.53010670
  1 115 111       6.33297040       0.00500000       4.33297040
  1 115 112       5.79528646       0.00500000       3.79528646
  1 115 113       5.48080816       0.00500000       3.48080816
  1 116 113       5.15953610       0.00500000       3.15953610
  1 116 114       4.61339381       0.00500000       2.61339381
  1 116 115       4.07331385       0.00500000       2.07331385
  1 116 116       3.06684115       0.00500000       1.06684115
  1 116 117       2.87755999       0.00500000       0.87755999
  1 115 117       2.73959922       0.00500000       0.73959922
  1 115 118       2.55533534       0.00500000       0.55533534
  1 114 118       2.37477172       0.00500000       0.37477172
  1 114 119       2.22261297       0.00500000       0.22261297
  1 113 119       2.03602373       0.00500000       0.03602373
  1 113 120       1.88276474       0.00500000      -0.11723526
  1 112 120       1.69997224       0.00500000      -0.30002776
  1 112 121       1.54514117       0.00500000      -0.45485883
  1 111 121       1.37758124       0.00500000      -0.62241876
  1 110 121       1.20751760       0.00500000      -0.79248240
  1 110 122       1.05165882       0.00500000      -0.94834118
  1 109 122       0.86822980       0.00500000      -1.13177020
  1 109 123       0.71271350       0.00500000      -1.28728650
  1 108 123       0.00000000       0.00500000      -2.00000000
  1 108 124       0.00000000       0.00500000      -2.00000000
  1 109 124       0.00000000       0.00500000      -2.00000000
  1 109 125       0.00000000       0.00500000      -2.00000000
  1 110 125       0.00000000       0.00500000      -2.00000000
  1 111 125       0.00000000       0.00500000      -2.00000000
  1 112 125       0.00000000       0.00500000      -2.00000000
  1 113 125       0.00000000       0.00500000      -2.00000000
  1 114 125       0.00000000       0.00500000      -2.00000000
  1 115 125       0.00000000       0.00500000      -2.00000000
  1 115 126       0.00000000       0.00500000      -2.00000000
  1 115 127       0.00000000       0.00500000      -2.00000000
  1 115 128       0.00000000       0.00500000      -2.00000000
END period  1

