BEGIN options
  SAVE_FLOWS
END options

BEGIN dimensions
  MAXBOUND  130
END dimensions

BEGIN period  1
  1 140 57     123.48642296       0.01000000     121.48642296
  1 140 58     122.93324442       0.01000000     120.93324442
  1 141 58     121.88379036       0.01000000     119.88379036
  1 141 59     118.21445180       0.01000000     116.21445180
  1 140 59     117.21629308       0.01000000     115.21629308
  1 140 60     116.94791297       0.01000000     114.94791297
  1 141 60     116.19189907       0.01000000     114.19189907
  1 142 60     115.33229732       0.01000000     113.33229732
  1 142 61     112.77484728       0.01000000     110.77484728
  1 142 62     108.05321104       0.01000000     106.05321104
  1 142 63     106.20627912       0.01000000     104.20627912
  1 142 64     102.23693450       0.01000000     100.23693450
  1 142 65     101.12946141       0.01000000      99.12946141
  1 141 65     100.50447247       0.01000000      98.50447247
  1 141 66      99.00000000       0.01000000      97.00000000
  1 141 67      97.81146761       0.01000000      95.81146761
  1 141 68      93.25664037       0.01000000      91.25664037
  1 140 68      92.44319424       0.01000000      90.44319424
  1 140 69      91.80611291       0.01000000      89.80611291
  1 141 69      91.05364269       0.01000000      89.05364269
  1 140 70      90.31961330       0.01000000      88.31961330
  1 139 70      88.21950470       0.01000000      86.21950470
  1 139 71      86.08083079       0.01000000      84.08083079
  1 138 71      83.81535229       0.01000000      81.81535229
  1 138 72      82.76754469       0.01000000      80.76754469
  1 138 73      81.80472141       0.01000000      79.80472141
  1 137 73      81.07769943       0.01000000      79.07769943
  1 137 74      78.36790876       0.01000000      76.36790876
  1 138 74      77.67537273       0.01000000      75.67537273
  1 138 75      76.91537765       0.01000000      74.91537765
  1 138 76      75.59070744       0.01000000      73.59070744
  1 138 77      72.68718777       0.01000000      70.68718777
  1 137 77      68.00000000       0.01000000      66.00000000
  1 136 77      68.00000000       0.01000000      66.00000000
  1 135 77      68.00000000       0.01000000      66.00000000
  1 135 78      66.91088103       0.01000000      64.91088103
  1 134 78      65.76062922       0.01000000      63.76062922
  1 135 79      64.00000000       0.01000000      62.00000000
  1 135 80      64.00000000       0.01000000      62.00000000
  1 134 80      63.01614282       0.01000000      61.01614282
  1 133 80      58.21206058       0.01000000      56.21206058
  1 133 81      57.33625404       0.01000000      55.33625404
  1 132 81      57.17098833       0.01000000      55.17098833
  1 132 80      56.65671912       0.01000000      54.65671912
  1 131 80      55.99736912       0.01000000      53.99736912
  1 131 81      55.47237282       0.01000000      53.47237282
  1 130 81      53.17744943       0.01000000      51.17744943
  1 130 82      51.84062223       0.01000000      49.84062223
  1 129 82      50.60960871       0.01000000      48.60960871
  1 128 82      49.74944893       0.01000000      47.74944893
  1 128 83      47.45264607       0.01000000      45.45264607
  1 127 83      46.70284383       0.01000000      44.70284383
  1 127 84      46.18634791       0.01000000      44.18634791
  1 126 84      45.32968018       0.01000000      43.32968018
  1 125 84      44.45573343       0.01000000      42.45573343
  1 125 85      43.95576474       0.01000000      41.95576474
  1 124 84      42.07950941       0.01000000      40.07950941
  1 124 85      40.80343533       0.01000000      38.80343533
  1 123 85      37.33073397       0.01000000      35.33073397
  1 122 85      36.37436491       0.01000000      34.37436491
  1 122 86      35.42221761       0.01000000      33.42221761
  1 121 86      34.69172918       0.01000000      32.69172918
  1 121 87      32.51801316       0.01000000      30.51801316
  1 121 88      32.02209177       0.01000000      30.02209177
  1 120 88      31.59269172       0.01000000      29.59269172
  1 120 89      30.82305222       0.01000000      28.82305222
  1 120 90      30.10914800       0.01000000      28.10914800
  1 120 91      29.40414637       0.01000000      27.40414637
  1 119 91      28.96432744       0.01000000      26.96432744
  1 119 92      27.68666860       0.01000000      25.68666860
  1 118 92      27.34240785       0.01000000      25.34240785
  1 118 93      26.98154689       0.01000000      24.98154689
  1 118 94      26.59831826       0.01000000      24.59831826
  1 117 94      26.30527168       0.01000000      24.30527168
  1 117 95      25.80043305       0.01000000      23.80043305
  1 117 96      25.27980249       0.01000000      23.27980249
  1 117 97      24.76848306       0.01000000      22.76848306
  1 117 98      23.43129760       0.01000000      21.43129760
  1 117 99      22.29188496       0.01000000      20.29188496
  1 117 100      21.12756269       0.01000000      19.12756269
  1 117 101      19.92266015       0.01000000      17.92266015
  1 117 102      18.93591108       0.01000000      16.93591108
  1 118 102      18.30061775       0.01000000      16.30061775
  1 118 103      17.34049125       0.01000000      15.34049125
  1 118 104      16.48553009       0.01000000      14.48553009
  1 119 104      15.88554117       0.01000000      13.88554117
  1 119 105      14.81615370       0.01000000      12.81615370
  1 119 106      12.36487644       0.01000000      10.36487644
  1 119 107      11.10901940       0.01000000       9.10901940
  1 118 107       9.85381248       0.01000000       7.85381248
  1 117 107       8.93685826       0.01000000       6.93685826
  1 117 108       8.45077841       0.01000000       6.45077841
  1 117 109       7.91023301       0.01000000       5.91023301
  1 116 109       7.43464010       0.01000000       5.43464010
  1 116 110       6.92134341       0.01000000       4.92134341
  1 115 110       6.53010670       0.01000000       4.53010670
  1 115 111       5.33297040       0.01000000       3.33297040
  1 115 112       4.79528646       0.01000000       2.79528646
  1 115 113       4.48080816       0.01000000       2.48080816
  1 116 113       4.15953610       0.01000000       2.15953610
  1 116 114       3.61339381       0.01000000       1.61339381
  1 116 115       3.07331385       0.01000000       1.07331385
  1 116 116       2.06684115       0.01000000       0.06684115
  1 116 117       1.87755999       0.01000000      -0.12244001
  1 115 117       1.73959922       0.01000000      -0.26040078
  1 115 118       1.55533534       0.01000000      -0.44466466
  1 114 118       1.37477172       0.01000000      -0.62522828
  1 114 119       1.22261297       0.01000000      -0.77738703
  1 113 119       1.03602373       0.01000000      -0.96397627
  1 113 120       0.88276474       0.01000000      -1.11723526
  1 112 120       0.69997224       0.01000000      -1.30002776
  1 112 121       0.54514117       0.01000000      -1.45485883
  1 111 121       0.37758124       0.01000000      -1.62241876
  1 110 121       0.20751760       0.01000000      -1.79248240
  1 110 122       0.05165882       0.01000000      -1.94834118
  1 109 122      -0.13177020       0.01000000      -2.13177020
  1 109 123      -0.28728650       0.01000000      -2.28728650
  1 108 123       0.00000000       0.01000000      -2.00000000
  1 108 124       0.00000000       0.01000000      -2.00000000
  1 109 124       0.00000000       0.01000000      -2.00000000
  1 109 125       0.00000000       0.01000000      -2.00000000
  1 110 125       0.00000000       0.01000000      -2.00000000
  1 111 125       0.00000000       0.01000000      -2.00000000
  1 112 125       0.00000000       0.01000000      -2.00000000
  1 113 125       0.00000000       0.01000000      -2.00000000
  1 114 125       0.00000000       0.01000000      -2.00000000
  1 115 125       0.00000000       0.01000000      -2.00000000
  1 115 126       0.00000000       0.01000000      -2.00000000
  1 115 127       0.00000000       0.01000000      -2.00000000
  1 115 128       0.00000000       0.01000000      -2.00000000
END period  1

