BEGIN options
  SAVE_FLOWS
END options

BEGIN dimensions
  MAXBOUND  134
END dimensions

BEGIN period  1
  1 144 88      99.69990828
  1 144 89      99.08719911
  1 145 89      98.33505227
  1 145 90      97.44338934
  1 145 91      96.46549840
  1 144 91      95.33492404
  1 145 92      94.26680299
  1 145 93      93.49401707
  1 146 93      93.04639701
  1 146 94      92.43904138
  1 146 95      91.52009934
  1 146 96      90.60799688
  1 145 96      90.00635016
  1 145 97      89.42810210
  1 145 98      88.51405332
  1 145 99      87.58150291
  1 145 100      86.67296236
  1 145 101      85.79711015
  1 144 101      85.25455440
  1 144 102      84.68068310
  1 144 103      83.66410759
  1 144 104      83.08198401
  1 143 104      82.48088395
  1 143 105      81.73740584
  1 142 105      81.19435373
  1 142 106      80.39137903
  1 141 106      79.80564161
  1 141 107      79.14550190
  1 141 108      78.26840611
  1 140 108      77.79141703
  1 140 109      77.57209290
  1 141 109      77.05961136
  1 141 110      76.19155191
  1 142 110      75.66886812
  1 142 111      75.16355723
  1 142 112      74.38769547
  1 141 112      73.56276186
  1 140 112      72.93926469
  1 140 113      72.42146125
  1 139 113      71.50126747
  1 138 113      70.62315453
  1 138 114      69.77341612
  1 138 115      68.80979287
  1 138 116      67.85167785
  1 137 116      66.85595934
  1 136 116      65.63806216
  1 136 117      64.72870319
  1 135 117      64.00953758
  1 134 117      62.96583043
  1 133 117      61.92042485
  1 133 118      61.17824272
  1 132 118      60.73321432
  1 132 119      59.97752827
  1 131 119      58.96529739
  1 131 120      58.38713024
  1 130 120      57.70143230
  1 130 121      57.07189495
  1 129 121      56.47708022
  1 128 121      55.59170167
  1 128 122      55.02682451
  1 127 122      54.29179432
  1 126 122      53.19689547
  1 125 122      52.19448768
  1 125 123      51.65724752
  1 124 123      50.99568171
  1 124 124      50.22299790
  1 123 124      49.67864960
  1 123 125      48.92717170
  1 122 125      48.33003159
  1 122 126      47.64370885
  1 122 127      46.67843943
  1 122 128      45.80384195
  1 122 129      44.91835029
  1 122 130      44.33312339
  1 121 130      43.74750271
  1 121 131      43.01504322
  1 120 131      42.43166016
  1 120 132      41.68067943
  1 119 132      41.11322793
  1 119 133      40.48522262
  1 119 134      39.65560841
  1 118 134      39.18339894
  1 118 135      38.58442204
  1 118 136      37.70837619
  1 118 137      36.83816418
  1 118 138      35.96766090
  1 118 139      35.09484258
  1 118 140      34.22045431
  1 118 141      33.31867302
  1 118 142      32.63406100
  1 119 142      32.16655403
  1 119 143      31.42939476
  1 119 144      30.61897805
  1 120 144      30.08881779
  1 120 145      29.39280318
  1 120 146      28.49989341
  1 121 146      28.03183357
  1 121 147      27.49164435
  1 121 148      26.55846392
  1 121 149      25.65250749
  1 120 149      24.74409662
  1 120 150      24.24848478
  1 119 150      23.56133344
  1 118 150      22.88508724
  1 118 151      22.35576373
  1 118 152      21.50680067
  1 117 152      20.87897163
  1 117 153      20.12375174
  1 117 154      19.21580698
  1 117 155      18.34783771
  1 117 156      17.41430695
  1 117 157      16.43158547
  1 117 158      15.51105147
  1 117 159      15.04169458
  1 118 159      14.59947244
  1 118 160      13.89076024
  1 117 160      13.41054568
  1 117 161      12.73922253
  1 117 162      11.94044119
  1 116 162      11.37136114
  1 116 163      10.70832766
  1 115 163      10.04126273
  1 115 164       9.41528268
  1 114 164       8.72954004
  1 114 165       8.09664009
  1 113 165       7.42475859
  1 113 166       6.78657896
  1 112 166       6.11534085
  1 112 167       5.47716122
  1 111 167       4.79994181
  1 111 168       4.15762888
  1 110 168       3.49046656
  1 117 174      -9.03544757
  1 117 175      -9.73476608
END period  1

