BEGIN options
  SAVE_FLOWS
END options

BEGIN dimensions
  MAXBOUND  66
END dimensions

BEGIN period  1
  1 72 44     123.00000000
  1 72 45     123.00000000
  1 73 45     120.62946947
  1 73 46     114.55134397
  1 72 46     116.01263365
  1 73 47     107.20475753
  1 73 48     105.49758116
  1 73 49     101.74622225
  1 73 50      96.29648605
  1 73 51      92.50839471
  1 72 51      91.35265765
  1 72 52      86.73211085
  1 72 53      85.28517306
  1 71 53      81.69050849
  1 71 54      77.33446943
  1 70 54      76.59438609
  1 70 55      76.42796537
  1 71 55      75.64249338
  1 71 56      71.61588567
  1 70 56      70.10766500
  1 70 57      68.00000000
  1 69 57      67.08430042
  1 69 58      61.31092686
  1 68 58      57.34529714
  1 68 59      56.02352621
  1 67 59      52.00399671
  1 66 59      50.83534522
  1 66 60      49.78946895
  1 65 60      47.55089322
  1 65 61      46.64456780
  1 64 61      45.36419942
  1 63 61      41.10888448
  1 63 62      38.98432689
  1 62 62      36.70928183
  1 62 63      32.73592935
  1 61 63      32.06180595
  1 61 64      31.12921318
  1 61 65      29.99091816
  1 61 66      29.20364871
  1 60 66      27.39978819
  1 60 67      26.22309425
  1 59 67      25.53694773
  1 59 68      24.81853680
  1 59 69      22.36446222
  1 59 70      21.09055032
  1 59 71      19.95235406
  1 60 71      19.27152424
  1 60 72      18.34627852
  1 60 73      16.95014419
  1 61 73      16.25284402
  1 61 74      15.52614301
  1 61 75      14.51574362
  1 60 75      13.35085421
  1 59 75      12.49530310
  1 59 76      11.65048818
  1 59 77      10.16256412
  1 59 78       8.81813811
  1 59 79       7.46452093
  1 59 80       6.11900333
  1 59 81       4.86237502
  1 58 81       4.08935218
  1 58 82       3.14826808
  1 57 82       2.16060919
  1 57 83       1.23261834
  1 56 83       0.25203243
  1 56 84      -0.68283067
END period  1

