BEGIN options
  SAVE_FLOWS
END options

BEGIN dimensions
  MAXBOUND  197
END dimensions

BEGIN period  1
  1 216 131     129.97486784
  1 216 132     123.00000000
  1 216 133     123.00000000
  1 217 133     123.00000000
  1 217 134     123.00000000
  1 217 135     122.35227096
  1 217 136     121.14591496
  1 216 136     116.86543249
  1 217 137     115.16924850
  1 218 137     114.36702386
  1 218 138     112.16343383
  1 218 139     110.50367972
  1 218 140     107.61652763
  1 218 141     106.90159229
  1 219 141     106.49486093
  1 219 142     106.03544541
  1 219 143     105.27581295
  1 219 144     104.73340782
  1 218 144     104.15606984
  1 218 145     102.40142726
  1 218 146     101.17790381
  1 218 147     100.28523310
  1 217 147      99.64260906
  1 217 148      98.00000000
  1 217 149      97.27078249
  1 217 150      95.80902044
  1 217 151      94.36218581
  1 217 152      92.82261271
  1 216 152      92.26478946
  1 216 153      91.49675274
  1 216 154      90.68040497
  1 216 155      90.16712860
  1 215 155      89.55450174
  1 215 156      88.97482592
  1 214 156      87.15774775
  1 214 157      85.91494646
  1 213 157      85.01204269
  1 213 158      82.52765515
  1 212 158      81.94781145
  1 212 159      81.26035899
  1 212 160      80.58776469
  1 211 160      80.05602700
  1 211 161      79.15741986
  1 211 162      77.75341912
  1 210 162      77.40075266
  1 210 163      77.16394266
  1 211 163      76.81179743
  1 211 164      76.21723859
  1 212 164      75.81006213
  1 212 165      75.41765033
  1 212 166      74.72043689
  1 212 167      74.06123480
  1 212 168      72.15914024
  1 211 168      70.50801762
  1 210 168      69.41553869
  1 210 169      68.00000000
  1 209 169      68.00000000
  1 208 169      68.00000000
  1 207 169      68.00000000
  1 207 170      67.26837654
  1 206 170      66.12652515
  1 206 171      65.06587800
  1 206 172      64.08165583
  1 207 172      63.00000000
  1 207 173      63.00000000
  1 207 174      63.00000000
  1 206 174      63.00000000
  1 205 174      61.79223193
  1 204 174      57.65810572
  1 203 174      56.98511516
  1 203 175      56.29348456
  1 202 175      55.60778342
  1 201 175      54.95369771
  1 200 175      54.29329019
  1 199 175      53.83074546
  1 199 176      52.50779703
  1 199 177      51.91734610
  1 198 177      51.52372929
  1 198 178      50.73901832
  1 197 178      49.79672690
  1 196 178      49.28602959
  1 196 179      48.73439072
  1 195 179      47.91404786
  1 195 180      47.47409463
  1 194 180      46.99983243
  1 194 181      46.66368132
  1 193 181      46.09334825
  1 192 181      45.69128335
  1 192 182      45.33028485
  1 191 182      44.67767307
  1 190 182      44.01187724
  1 189 182      42.10872867
  1 188 182      41.09565564
  1 188 183      40.07968990
  1 187 183      37.67681837
  1 187 184      37.18538224
  1 186 184      36.51729507
  1 186 185      35.85074609
  1 185 185      35.37899674
  1 185 186      34.63222068
  1 184 186      34.13230743
  1 184 187      32.71161660
  1 184 188      32.38890804
  1 183 188      32.09369199
  1 183 189      31.75133590
  1 182 189      31.51112022
  1 182 190      31.14106916
  1 182 191      30.71846796
  1 182 192      30.29119649
  1 182 193      29.86205797
  1 182 194      29.40104767
  1 182 195      29.01414817
  1 181 195      28.72267267
  1 181 196      28.36065413
  1 180 196      27.92811953
  1 180 197      27.59839468
  1 180 198      27.31991864
  1 179 198      27.04943168
  1 179 199      26.70017828
  1 178 199      26.45962609
  1 178 200      26.08836156
  1 178 201      25.75243161
  1 177 201      25.53694773
  1 177 202      25.22130823
  1 177 203      24.81406622
  1 177 204      24.41129478
  1 177 205      24.00778745
  1 177 206      23.60479278
  1 177 207      22.78000319
  1 177 208      22.33909666
  1 177 209      21.89727722
  1 177 210      21.45613345
  1 177 211      21.00151800
  1 177 212      20.53168835
  1 177 213      20.24770762
  1 178 213      20.01145327
  1 178 214      19.57502037
  1 178 215      19.19405836
  1 179 215      18.95062635
  1 179 216      18.55974414
  1 179 217      18.24235404
  1 180 217      17.98813044
  1 180 218      17.53978931
  1 180 219      17.11793566
  1 181 219      16.88080046
  1 181 220      16.59135076
  1 181 221      16.11335151
  1 181 222      15.64914451
  1 181 223      15.17895300
  1 181 224      14.83764331
  1 180 224      14.48755409
  1 179 224      13.97919914
  1 178 224      13.62936750
  1 178 225      13.27093322
  1 177 225      12.98388022
  1 177 226      12.71264952
  1 177 227      12.25883184
  1 176 227      11.99284387
  1 176 228      11.65560915
  1 175 228      11.31667598
  1 175 229      11.00362562
  1 175 230      10.53515761
  1 175 231      10.09614441
  1 175 232       9.65808958
  1 175 233       9.21774601
  1 175 234       8.72997374
  1 175 235       8.43365373
  1 176 235       8.17817688
  1 176 236       7.73223433
  1 176 237       7.29071791
  1 176 238       6.84627433
  1 176 239       6.40051741
  1 176 240       5.92530599
  1 176 241       5.56008931
  1 175 241       5.31494569
  1 175 242       4.93100697
  1 175 243       4.57134379
  1 174 243       4.26612545
  1 174 244       3.92555470
  1 173 244       3.59493766
  1 173 245       3.27692275
  1 172 245       2.92939091
  1 172 246       2.61198463
  1 171 246       2.26583916
  1 171 247       1.94769987
  1 170 247       1.60838877
  1 170 248       1.28625190
  1 169 248       0.94742795
  1 169 249       0.62529108
  1 168 249       0.28646713
  1 168 250      -0.03566974
  1 167 250      -0.37148322
  1 167 251      -0.69842967
  1 166 251      -1.03241804
  1 165 251      -1.36422109
  1 165 252      -1.68778363
  1 175 260       0.00000000
END period  1

