BEGIN options
  SAVE_FLOWS
END options

BEGIN dimensions
  MAXBOUND  278
END dimensions

BEGIN period  1
  1 9 265       0.00000000
  1 9 266       0.00000000
  1 10 266       0.00000000
  1 10 267       0.00000000
  1 10 268       0.00000000
  1 10 269       0.00000000
  1 11 269       0.00000000
  1 11 270       0.00000000
  1 11 271       0.00000000
  1 11 272       0.00000000
  1 12 272       0.00000000
  1 12 273       0.00000000
  1 13 273       0.00000000
  1 14 273       0.00000000
  1 14 274       0.00000000
  1 15 274       0.00000000
  1 15 275       0.00000000
  1 16 275       0.00000000
  1 17 275       0.00000000
  1 18 275       0.00000000
  1 19 275       0.00000000
  1 20 275       0.00000000
  1 21 274       0.00000000
  1 21 275       0.00000000
  1 22 274       0.00000000
  1 23 274       0.00000000
  1 24 274       0.00000000
  1 25 273       0.00000000
  1 25 274       0.00000000
  1 26 273       0.00000000
  1 27 273       0.00000000
  1 28 273       0.00000000
  1 29 272       0.00000000
  1 29 273       0.00000000
  1 30 272       0.00000000
  1 31 272       0.00000000
  1 32 272       0.00000000
  1 33 272       0.00000000
  1 34 271       0.00000000
  1 34 272       0.00000000
  1 35 271       0.00000000
  1 36 271       0.00000000
  1 37 271       0.00000000
  1 38 271       0.00000000
  1 39 271       0.00000000
  1 40 271       0.00000000
  1 41 271       0.00000000
  1 42 271       0.00000000
  1 43 270       0.00000000
  1 43 271       0.00000000
  1 44 270       0.00000000
  1 45 270       0.00000000
  1 46 270       0.00000000
  1 47 270       0.00000000
  1 48 269       0.00000000
  1 48 270       0.00000000
  1 49 269       0.00000000
  1 50 269       0.00000000
  1 51 269       0.00000000
  1 52 269       0.00000000
  1 53 269       0.00000000
  1 54 268       0.00000000
  1 54 269       0.00000000
  1 55 268       0.00000000
  1 56 268       0.00000000
  1 57 268       0.00000000
  1 58 268       0.00000000
  1 59 268       0.00000000
  1 60 268       0.00000000
  1 61 267       0.00000000
  1 61 268       0.00000000
  1 62 267       0.00000000
  1 63 267       0.00000000
  1 64 267       0.00000000
  1 65 267       0.00000000
  1 66 267       0.00000000
  1 67 267       0.00000000
  1 68 267       0.00000000
  1 69 267       0.00000000
  1 70 266       0.00000000
  1 70 267       0.00000000
  1 71 266       0.00000000
  1 72 266       0.00000000
  1 73 266       0.00000000
  1 74 266       0.00000000
  1 75 266       0.00000000
  1 76 266       0.00000000
  1 77 266       0.00000000
  1 78 266       0.00000000
  1 79 266       0.00000000
  1 80 266       0.00000000
  1 81 265       0.00000000
  1 81 266       0.00000000
  1 82 265       0.00000000
  1 83 265       0.00000000
  1 84 265       0.00000000
  1 85 265       0.00000000
  1 86 265       0.00000000
  1 87 265       0.00000000
  1 88 265       0.00000000
  1 89 265       0.00000000
  1 90 265       0.00000000
  1 91 265       0.00000000
  1 92 265       0.00000000
  1 93 265       0.00000000
  1 94 265       0.00000000
  1 95 265       0.00000000
  1 96 265       0.00000000
  1 97 265       0.00000000
  1 98 265       0.00000000
  1 99 265       0.00000000
  1 100 265       0.00000000
  1 101 265       0.00000000
  1 102 265       0.00000000
  1 103 265       0.00000000
  1 104 265       0.00000000
  1 105 265       0.00000000
  1 106 265       0.00000000
  1 107 265       0.00000000
  1 108 265       0.00000000
  1 109 265       0.00000000
  1 110 265       0.00000000
  1 111 265       0.00000000
  1 112 265       0.00000000
  1 113 265       0.00000000
  1 114 265       0.00000000
  1 115 265       0.00000000
  1 116 265       0.00000000
  1 117 265       0.00000000
  1 118 265       0.00000000
  1 119 265       0.00000000
  1 120 265       0.00000000
  1 121 265       0.00000000
  1 122 265       0.00000000
  1 123 265       0.00000000
  1 124 265       0.00000000
  1 125 265       0.00000000
  1 126 265       0.00000000
  1 127 265       0.00000000
  1 128 265       0.00000000
  1 129 265       0.00000000
  1 130 265       0.00000000
  1 131 265       0.00000000
  1 132 265       0.00000000
  1 133 265       0.00000000
  1 134 265       0.00000000
  1 134 266       0.00000000
  1 135 266       0.00000000
  1 136 266       0.00000000
  1 137 266       0.00000000
  1 138 266       0.00000000
  1 139 265       0.00000000
  1 139 266       0.00000000
  1 140 265       0.00000000
  1 141 265       0.00000000
  1 142 265       0.00000000
  1 143 265       0.00000000
  1 144 265       0.00000000
  1 145 265       0.00000000
  1 146 265       0.00000000
  1 147 264       0.00000000
  1 147 265       0.00000000
  1 148 264       0.00000000
  1 149 264       0.00000000
  1 150 264       0.00000000
  1 151 264       0.00000000
  1 152 264       0.00000000
  1 153 264       0.00000000
  1 154 264       0.00000000
  1 155 264       0.00000000
  1 156 264       0.00000000
  1 157 264       0.00000000
  1 158 263       0.00000000
  1 158 264       0.00000000
  1 159 263       0.00000000
  1 160 263       0.00000000
  1 161 263       0.00000000
  1 162 263       0.00000000
  1 163 263       0.00000000
  1 164 263       0.00000000
  1 165 263       0.00000000
  1 166 263       0.00000000
  1 167 263       0.00000000
  1 168 263       0.00000000
  1 169 263       0.00000000
  1 170 263       0.00000000
  1 171 263       0.00000000
  1 172 263       0.00000000
  1 173 263       0.00000000
  1 174 263       0.00000000
  1 175 263       0.00000000
  1 176 263       0.00000000
  1 177 263       0.00000000
  1 178 263       0.00000000
  1 179 263       0.00000000
  1 180 263       0.00000000
  1 181 263       0.00000000
  1 182 263       0.00000000
  1 183 263       0.00000000
  1 183 264       0.00000000
  1 184 264       0.00000000
  1 185 264       0.00000000
  1 186 264       0.00000000
  1 187 264       0.00000000
  1 188 264       0.00000000
  1 189 264       0.00000000
  1 190 264       0.00000000
  1 191 264       0.00000000
  1 192 264       0.00000000
  1 193 264       0.00000000
  1 194 264       0.00000000
  1 194 265       0.00000000
  1 195 265       0.00000000
  1 196 265       0.00000000
  1 197 265       0.00000000
  1 198 265       0.00000000
  1 199 265       0.00000000
  1 199 266       0.00000000
  1 200 266       0.00000000
  1 201 266       0.00000000
  1 202 266       0.00000000
  1 203 266       0.00000000
  1 204 266       0.00000000
  1 204 267       0.00000000
  1 205 267       0.00000000
  1 206 267       0.00000000
  1 207 267       0.00000000
  1 208 267       0.00000000
  1 209 267       0.00000000
  1 210 267       0.00000000
  1 210 268       0.00000000
  1 211 268       0.00000000
  1 212 268       0.00000000
  1 213 268       0.00000000
  1 214 268       0.00000000
  1 215 268       0.00000000
  1 216 268       0.00000000
  1 216 269       0.00000000
  1 217 269       0.00000000
  1 218 269       0.00000000
  1 219 269       0.00000000
  1 220 269       0.00000000
  1 221 269       0.00000000
  1 222 269       0.00000000
  1 223 269       0.00000000
  1 224 269       0.00000000
  1 225 269       0.00000000
  1 226 269       0.00000000
  1 227 269       0.00000000
  1 228 269       0.00000000
  1 229 269       0.00000000
  1 230 269       0.00000000
  1 231 269       0.00000000
  1 232 269       0.00000000
  1 233 269       0.00000000
  1 234 269       0.00000000
  1 235 269       0.00000000
  1 235 270       0.00000000
  1 236 270       0.00000000
  1 237 270       0.00000000
  1 238 270       0.00000000
  1 239 270       0.00000000
  1 240 270       0.00000000
  1 240 271       0.00000000
  1 241 271       0.00000000
  1 242 271       0.00000000
  1 243 271       0.00000000
  1 243 272       0.00000000
  1 244 272       0.00000000
  1 245 272       0.00000000
  1 245 273       0.00000000
  1 246 273       0.00000000
  1 247 273       0.00000000
  1 247 274       0.00000000
  1 248 274       0.00000000
  1 248 275       0.00000000
  1 248 276       0.00000000
  1 249 276       0.00000000
END period  1

