BEGIN options
  SAVE_FLOWS
END options

BEGIN dimensions
  MAXBOUND  234
END dimensions

BEGIN period  1
  1 8 236       0.00000000
  1 8 237       0.00000000
  1 8 238       0.00000000
  1 9 238       0.00000000
  1 9 239       0.00000000
  1 9 240       0.00000000
  1 9 241       0.00000000
  1 10 241       0.00000000
  1 10 242       0.00000000
  1 11 242       0.00000000
  1 12 242       0.00000000
  1 12 243       0.00000000
  1 12 244       0.00000000
  1 13 244       0.00000000
  1 14 244       0.00000000
  1 15 244       0.00000000
  1 16 244       0.00000000
  1 17 244       0.00000000
  1 18 243       0.00000000
  1 18 244       0.00000000
  1 19 243       0.00000000
  1 20 243       0.00000000
  1 21 243       0.00000000
  1 22 242       0.00000000
  1 22 243       0.00000000
  1 23 242       0.00000000
  1 24 242       0.00000000
  1 25 242       0.00000000
  1 26 242       0.00000000
  1 27 241       0.00000000
  1 27 242       0.00000000
  1 28 241       0.00000000
  1 29 241       0.00000000
  1 30 241       0.00000000
  1 31 241       0.00000000
  1 32 241       0.00000000
  1 33 241       0.00000000
  1 34 240       0.00000000
  1 34 241       0.00000000
  1 35 240       0.00000000
  1 36 240       0.00000000
  1 37 240       0.00000000
  1 38 240       0.00000000
  1 39 239       0.00000000
  1 39 240       0.00000000
  1 40 239       0.00000000
  1 41 239       0.00000000
  1 42 239       0.00000000
  1 43 239       0.00000000
  1 44 239       0.00000000
  1 45 238       0.00000000
  1 45 239       0.00000000
  1 46 238       0.00000000
  1 47 238       0.00000000
  1 48 238       0.00000000
  1 49 238       0.00000000
  1 50 238       0.00000000
  1 51 237       0.00000000
  1 51 238       0.00000000
  1 52 237       0.00000000
  1 53 237       0.00000000
  1 54 237       0.00000000
  1 55 237       0.00000000
  1 56 237       0.00000000
  1 57 237       0.00000000
  1 58 237       0.00000000
  1 59 236       0.00000000
  1 59 237       0.00000000
  1 60 236       0.00000000
  1 61 236       0.00000000
  1 62 236       0.00000000
  1 63 236       0.00000000
  1 64 236       0.00000000
  1 65 236       0.00000000
  1 66 236       0.00000000
  1 67 236       0.00000000
  1 68 236       0.00000000
  1 69 236       0.00000000
  1 70 236       0.00000000
  1 71 236       0.00000000
  1 72 236       0.00000000
  1 73 236       0.00000000
  1 74 236       0.00000000
  1 75 236       0.00000000
  1 76 236       0.00000000
  1 77 235       0.00000000
  1 77 236       0.00000000
  1 78 235       0.00000000
  1 79 235       0.00000000
  1 80 235       0.00000000
  1 81 235       0.00000000
  1 82 235       0.00000000
  1 83 235       0.00000000
  1 84 235       0.00000000
  1 85 235       0.00000000
  1 86 235       0.00000000
  1 87 235       0.00000000
  1 88 235       0.00000000
  1 89 235       0.00000000
  1 90 235       0.00000000
  1 91 235       0.00000000
  1 92 235       0.00000000
  1 93 235       0.00000000
  1 94 235       0.00000000
  1 95 235       0.00000000
  1 96 235       0.00000000
  1 97 235       0.00000000
  1 98 235       0.00000000
  1 99 235       0.00000000
  1 100 235       0.00000000
  1 101 235       0.00000000
  1 102 235       0.00000000
  1 103 235       0.00000000
  1 104 235       0.00000000
  1 105 235       0.00000000
  1 106 235       0.00000000
  1 107 235       0.00000000
  1 108 235       0.00000000
  1 109 235       0.00000000
  1 110 235       0.00000000
  1 110 236       0.00000000
  1 111 236       0.00000000
  1 112 236       0.00000000
  1 113 236       0.00000000
  1 114 236       0.00000000
  1 115 236       0.00000000
  1 116 236       0.00000000
  1 117 236       0.00000000
  1 118 235       0.00000000
  1 118 236       0.00000000
  1 119 235       0.00000000
  1 120 235       0.00000000
  1 121 235       0.00000000
  1 122 235       0.00000000
  1 123 235       0.00000000
  1 124 235       0.00000000
  1 125 235       0.00000000
  1 126 234       0.00000000
  1 126 235       0.00000000
  1 127 234       0.00000000
  1 128 234       0.00000000
  1 129 234       0.00000000
  1 130 234       0.00000000
  1 131 234       0.00000000
  1 132 234       0.00000000
  1 133 234       0.00000000
  1 134 234       0.00000000
  1 135 234       0.00000000
  1 136 233       0.00000000
  1 136 234       0.00000000
  1 137 233       0.00000000
  1 138 233       0.00000000
  1 139 233       0.00000000
  1 140 233       0.00000000
  1 141 233       0.00000000
  1 142 233       0.00000000
  1 143 233       0.00000000
  1 143 234       0.00000000
  1 144 234       0.00000000
  1 145 234       0.00000000
  1 146 234       0.00000000
  1 147 234       0.00000000
  1 148 234       0.00000000
  1 149 234       0.00000000
  1 150 234       0.00000000
  1 151 234       0.00000000
  1 152 234       0.00000000
  1 153 234       0.00000000
  1 154 234       0.00000000
  1 155 234       0.00000000
  1 156 234       0.00000000
  1 157 234       0.00000000
  1 158 234       0.00000000
  1 158 235       0.00000000
  1 159 235       0.00000000
  1 160 235       0.00000000
  1 161 235       0.00000000
  1 162 235       0.00000000
  1 163 235       0.00000000
  1 164 235       0.00000000
  1 165 235       0.00000000
  1 165 236       0.00000000
  1 166 236       0.00000000
  1 167 236       0.00000000
  1 168 236       0.00000000
  1 169 236       0.00000000
  1 170 236       0.00000000
  1 170 237       0.00000000
  1 171 237       0.00000000
  1 172 237       0.00000000
  1 173 237       0.00000000
  1 174 237       0.00000000
  1 175 237       0.00000000
  1 175 238       0.00000000
  1 176 238       0.00000000
  1 177 238       0.00000000
  1 178 238       0.00000000
  1 179 238       0.00000000
  1 180 238       0.00000000
  1 181 238       0.00000000
  1 181 239       0.00000000
  1 182 239       0.00000000
  1 183 239       0.00000000
  1 184 239       0.00000000
  1 185 239       0.00000000
  1 186 239       0.00000000
  1 187 239       0.00000000
  1 188 239       0.00000000
  1 189 239       0.00000000
  1 190 239       0.00000000
  1 191 239       0.00000000
  1 192 239       0.00000000
  1 193 239       0.00000000
  1 194 239       0.00000000
  1 195 239       0.00000000
  1 196 239       0.00000000
  1 197 239       0.00000000
  1 197 240       0.00000000
  1 198 240       0.00000000
  1 199 240       0.00000000
  1 200 240       0.00000000
  1 201 240       0.00000000
  1 201 241       0.00000000
  1 202 241       0.00000000
  1 203 241       0.00000000
  1 204 241       0.00000000
  1 204 242       0.00000000
  1 205 242       0.00000000
  1 205 243       0.00000000
  1 206 243       0.00000000
  1 206 244       0.00000000
  1 207 244       0.00000000
  1 207 245       0.00000000
  1 208 245       0.00000000
END period  1

