BEGIN options
  SAVE_FLOWS
END options

BEGIN dimensions
  MAXBOUND  92
END dimensions

BEGIN period  1
  1 3 89       0.00000000
  1 4 89       0.00000000
  1 4 90       0.00000000
  1 4 91       0.00000000
  1 5 91       0.00000000
  1 5 92       0.00000000
  1 6 92       0.00000000
  1 7 92       0.00000000
  1 8 92       0.00000000
  1 9 91       0.00000000
  1 9 92       0.00000000
  1 10 91       0.00000000
  1 11 91       0.00000000
  1 12 91       0.00000000
  1 13 91       0.00000000
  1 14 91       0.00000000
  1 15 90       0.00000000
  1 15 91       0.00000000
  1 16 90       0.00000000
  1 17 90       0.00000000
  1 18 90       0.00000000
  1 19 90       0.00000000
  1 20 90       0.00000000
  1 21 89       0.00000000
  1 21 90       0.00000000
  1 22 89       0.00000000
  1 23 89       0.00000000
  1 24 89       0.00000000
  1 25 89       0.00000000
  1 26 89       0.00000000
  1 27 89       0.00000000
  1 28 89       0.00000000
  1 29 89       0.00000000
  1 30 89       0.00000000
  1 31 89       0.00000000
  1 32 89       0.00000000
  1 33 89       0.00000000
  1 34 89       0.00000000
  1 35 89       0.00000000
  1 36 89       0.00000000
  1 37 89       0.00000000
  1 38 89       0.00000000
  1 39 89       0.00000000
  1 40 89       0.00000000
  1 41 89       0.00000000
  1 42 89       0.00000000
  1 43 89       0.00000000
  1 44 89       0.00000000
  1 45 89       0.00000000
  1 46 89       0.00000000
  1 47 89       0.00000000
  1 48 89       0.00000000
  1 49 88       0.00000000
  1 49 89       0.00000000
  1 50 88       0.00000000
  1 51 88       0.00000000
  1 52 88       0.00000000
  1 53 88       0.00000000
  1 54 88       0.00000000
  1 55 88       0.00000000
  1 56 88       0.00000000
  1 57 88       0.00000000
  1 58 88       0.00000000
  1 59 88       0.00000000
  1 60 88       0.00000000
  1 61 88       0.00000000
  1 62 88       0.00000000
  1 63 88       0.00000000
  1 64 88       0.00000000
  1 65 88       0.00000000
  1 65 89       0.00000000
  1 66 89       0.00000000
  1 67 89       0.00000000
  1 68 89       0.00000000
  1 69 89       0.00000000
  1 70 89       0.00000000
  1 70 90       0.00000000
  1 71 90       0.00000000
  1 72 90       0.00000000
  1 73 90       0.00000000
  1 74 90       0.00000000
  1 75 90       0.00000000
  1 76 90       0.00000000
  1 77 90       0.00000000
  1 78 90       0.00000000
  1 79 90       0.00000000
  1 80 90       0.00000000
  1 80 91       0.00000000
  1 81 91       0.00000000
  1 82 91       0.00000000
  1 83 91       0.00000000
  1 83 92       0.00000000
END period  1

