BEGIN options
  SAVE_FLOWS
END options

BEGIN dimensions
  MAXBOUND  186
END dimensions

BEGIN period  1
  1 6 177       0.00000000
  1 7 177       0.00000000
  1 7 178       0.00000000
  1 7 179       0.00000000
  1 7 180       0.00000000
  1 8 180       0.00000000
  1 8 181       0.00000000
  1 8 182       0.00000000
  1 9 182       0.00000000
  1 10 182       0.00000000
  1 10 183       0.00000000
  1 10 184       0.00000000
  1 11 184       0.00000000
  1 12 183       0.00000000
  1 12 184       0.00000000
  1 13 183       0.00000000
  1 14 183       0.00000000
  1 15 183       0.00000000
  1 16 183       0.00000000
  1 17 182       0.00000000
  1 17 183       0.00000000
  1 18 182       0.00000000
  1 19 182       0.00000000
  1 20 182       0.00000000
  1 21 181       0.00000000
  1 21 182       0.00000000
  1 22 181       0.00000000
  1 23 181       0.00000000
  1 24 181       0.00000000
  1 25 181       0.00000000
  1 26 181       0.00000000
  1 27 181       0.00000000
  1 28 181       0.00000000
  1 29 180       0.00000000
  1 29 181       0.00000000
  1 30 180       0.00000000
  1 31 180       0.00000000
  1 32 180       0.00000000
  1 33 180       0.00000000
  1 34 179       0.00000000
  1 34 180       0.00000000
  1 35 179       0.00000000
  1 36 179       0.00000000
  1 37 179       0.00000000
  1 38 179       0.00000000
  1 39 179       0.00000000
  1 40 179       0.00000000
  1 41 178       0.00000000
  1 41 179       0.00000000
  1 42 178       0.00000000
  1 43 178       0.00000000
  1 44 178       0.00000000
  1 45 178       0.00000000
  1 46 178       0.00000000
  1 47 178       0.00000000
  1 48 178       0.00000000
  1 49 178       0.00000000
  1 50 178       0.00000000
  1 51 177       0.00000000
  1 51 178       0.00000000
  1 52 177       0.00000000
  1 53 177       0.00000000
  1 54 177       0.00000000
  1 55 177       0.00000000
  1 56 177       0.00000000
  1 57 177       0.00000000
  1 58 177       0.00000000
  1 59 177       0.00000000
  1 60 177       0.00000000
  1 61 177       0.00000000
  1 62 177       0.00000000
  1 63 177       0.00000000
  1 64 177       0.00000000
  1 65 177       0.00000000
  1 66 177       0.00000000
  1 67 177       0.00000000
  1 68 177       0.00000000
  1 69 177       0.00000000
  1 70 177       0.00000000
  1 71 177       0.00000000
  1 72 177       0.00000000
  1 73 177       0.00000000
  1 74 177       0.00000000
  1 75 177       0.00000000
  1 76 177       0.00000000
  1 77 177       0.00000000
  1 78 177       0.00000000
  1 79 177       0.00000000
  1 80 177       0.00000000
  1 81 177       0.00000000
  1 82 177       0.00000000
  1 83 177       0.00000000
  1 84 177       0.00000000
  1 85 177       0.00000000
  1 86 177       0.00000000
  1 87 177       0.00000000
  1 88 177       0.00000000
  1 89 177       0.00000000
  1 90 177       0.00000000
  1 91 177       0.00000000
  1 92 177       0.00000000
  1 93 177       0.00000000
  1 94 177       0.00000000
  1 95 177       0.00000000
  1 96 177       0.00000000
  1 97 177       0.00000000
  1 98 176       0.00000000
  1 98 177       0.00000000
  1 99 176       0.00000000
  1 100 176       0.00000000
  1 101 176       0.00000000
  1 102 176       0.00000000
  1 103 176       0.00000000
  1 104 176       0.00000000
  1 105 176       0.00000000
  1 106 176       0.00000000
  1 107 176       0.00000000
  1 108 176       0.00000000
  1 109 175       0.00000000
  1 109 176       0.00000000
  1 110 175       0.00000000
  1 111 175       0.00000000
  1 112 175       0.00000000
  1 113 175       0.00000000
  1 114 175       0.00000000
  1 115 175       0.00000000
  1 115 176       0.00000000
  1 116 176       0.00000000
  1 117 176       0.00000000
  1 118 176       0.00000000
  1 119 176       0.00000000
  1 120 176       0.00000000
  1 121 176       0.00000000
  1 122 176       0.00000000
  1 123 176       0.00000000
  1 124 176       0.00000000
  1 125 176       0.00000000
  1 126 176       0.00000000
  1 127 176       0.00000000
  1 128 176       0.00000000
  1 129 176       0.00000000
  1 129 177       0.00000000
  1 130 177       0.00000000
  1 131 177       0.00000000
  1 132 177       0.00000000
  1 133 177       0.00000000
  1 134 177       0.00000000
  1 135 177       0.00000000
  1 135 178       0.00000000
  1 136 178       0.00000000
  1 137 178       0.00000000
  1 138 178       0.00000000
  1 139 178       0.00000000
  1 140 178       0.00000000
  1 140 179       0.00000000
  1 141 179       0.00000000
  1 142 179       0.00000000
  1 143 179       0.00000000
  1 144 179       0.00000000
  1 145 179       0.00000000
  1 146 179       0.00000000
  1 147 179       0.00000000
  1 148 179       0.00000000
  1 149 179       0.00000000
  1 150 179       0.00000000
  1 151 179       0.00000000
  1 152 179       0.00000000
  1 152 180       0.00000000
  1 153 180       0.00000000
  1 154 180       0.00000000
  1 155 180       0.00000000
  1 156 180       0.00000000
  1 157 180       0.00000000
  1 158 180       0.00000000
  1 159 180       0.00000000
  1 160 180       0.00000000
  1 160 181       0.00000000
  1 161 181       0.00000000
  1 162 181       0.00000000
  1 163 181       0.00000000
  1 163 182       0.00000000
  1 164 182       0.00000000
  1 165 182       0.00000000
  1 165 183       0.00000000
  1 165 184       0.00000000
  1 166 184       0.00000000
END period  1

