BEGIN options
  SAVE_FLOWS
END options

BEGIN dimensions
  MAXBOUND  142
END dimensions

BEGIN period  1
  1 5 142       0.00000000
  1 5 143       0.00000000
  1 5 144       0.00000000
  1 6 144       0.00000000
  1 6 145       0.00000000
  1 7 145       0.00000000
  1 7 146       0.00000000
  1 8 146       0.00000000
  1 8 147       0.00000000
  1 9 147       0.00000000
  1 10 146       0.00000000
  1 10 147       0.00000000
  1 11 146       0.00000000
  1 12 146       0.00000000
  1 13 146       0.00000000
  1 14 145       0.00000000
  1 14 146       0.00000000
  1 15 145       0.00000000
  1 16 145       0.00000000
  1 17 145       0.00000000
  1 18 145       0.00000000
  1 19 145       0.00000000
  1 20 144       0.00000000
  1 20 145       0.00000000
  1 21 144       0.00000000
  1 22 144       0.00000000
  1 23 144       0.00000000
  1 24 144       0.00000000
  1 25 144       0.00000000
  1 26 143       0.00000000
  1 26 144       0.00000000
  1 27 143       0.00000000
  1 28 143       0.00000000
  1 29 143       0.00000000
  1 30 143       0.00000000
  1 31 143       0.00000000
  1 32 142       0.00000000
  1 32 143       0.00000000
  1 33 142       0.00000000
  1 34 142       0.00000000
  1 35 142       0.00000000
  1 36 142       0.00000000
  1 37 142       0.00000000
  1 38 142       0.00000000
  1 39 142       0.00000000
  1 40 142       0.00000000
  1 41 142       0.00000000
  1 42 142       0.00000000
  1 43 142       0.00000000
  1 44 142       0.00000000
  1 45 142       0.00000000
  1 46 141       0.00000000
  1 46 142       0.00000000
  1 47 141       0.00000000
  1 48 141       0.00000000
  1 49 141       0.00000000
  1 50 141       0.00000000
  1 51 141       0.00000000
  1 52 141       0.00000000
  1 53 141       0.00000000
  1 54 141       0.00000000
  1 55 141       0.00000000
  1 56 141       0.00000000
  1 57 141       0.00000000
  1 58 141       0.00000000
  1 59 141       0.00000000
  1 60 141       0.00000000
  1 61 141       0.00000000
  1 62 141       0.00000000
  1 63 141       0.00000000
  1 64 141       0.00000000
  1 65 141       0.00000000
  1 66 141       0.00000000
  1 66 142       0.00000000
  1 67 142       0.00000000
  1 68 142       0.00000000
  1 69 142       0.00000000
  1 70 142       0.00000000
  1 71 141       0.00000000
  1 71 142       0.00000000
  1 72 141       0.00000000
  1 73 141       0.00000000
  1 74 141       0.00000000
  1 75 141       0.00000000
  1 76 141       0.00000000
  1 77 141       0.00000000
  1 78 141       0.00000000
  1 79 141       0.00000000
  1 80 140       0.00000000
  1 80 141       0.00000000
  1 81 140       0.00000000
  1 82 140       0.00000000
  1 83 140       0.00000000
  1 84 140       0.00000000
  1 85 140       0.00000000
  1 86 140       0.00000000
  1 87 140       0.00000000
  1 88 140       0.00000000
  1 89 140       0.00000000
  1 90 140       0.00000000
  1 91 140       0.00000000
  1 91 141       0.00000000
  1 92 141       0.00000000
  1 93 141       0.00000000
  1 94 141       0.00000000
  1 95 141       0.00000000
  1 96 141       0.00000000
  1 97 141       0.00000000
  1 98 141       0.00000000
  1 99 141       0.00000000
  1 99 142       0.00000000
  1 100 142       0.00000000
  1 101 142       0.00000000
  1 102 142       0.00000000
  1 103 142       0.00000000
  1 104 142       0.00000000
  1 104 143       0.00000000
  1 105 143       0.00000000
  1 106 143       0.00000000
  1 107 143       0.00000000
  1 108 143       0.00000000
  1 109 143       0.00000000
  1 110 143       0.00000000
  1 111 143       0.00000000
  1 112 143       0.00000000
  1 113 143       0.00000000
  1 114 143       0.00000000
  1 114 144       0.00000000
  1 115 144       0.00000000
  1 116 144       0.00000000
  1 117 144       0.00000000
  1 118 144       0.00000000
  1 119 144       0.00000000
  1 120 144       0.00000000
  1 121 144       0.00000000
  1 121 145       0.00000000
  1 122 145       0.00000000
  1 123 145       0.00000000
  1 123 146       0.00000000
  1 124 146       0.00000000
  1 124 147       0.00000000
  1 125 147       0.00000000
END period  1

