BEGIN options
  SAVE_FLOWS
END options

BEGIN dimensions
  MAXBOUND  107
END dimensions

BEGIN period  1
  1 137 63     130.03498836
  1 137 64     128.06634952
  1 136 64     126.90765583
  1 136 65     125.63212808
  1 136 66     123.40573628
  1 136 67     121.95450591
  1 137 67     120.81861495
  1 136 69     116.25376212
  1 136 70     114.26137060
  1 135 70     112.02455348
  1 134 70     109.32631142
  1 133 70     107.29054719
  1 133 71     105.46966075
  1 133 72     103.20899185
  1 133 73     101.03443375
  1 133 74      98.85929609
  1 133 75      96.68386568
  1 133 76      94.51590170
  1 133 77      92.35165506
  1 133 78      90.66820266
  1 132 78      89.44288481
  1 132 79      87.52824820
  1 132 80      85.89117139
  1 131 80      84.42013974
  1 131 81      82.44375446
  1 130 81      81.10017248
  1 127 87      65.00226158
  1 128 89      62.52843506
  1 128 90      61.65725450
  1 126 89      59.34862530
  1 126 90      58.53362383
  1 125 90      57.44470801
  1 125 91      56.14667965
  1 125 92      54.99391401
  1 124 92      54.33311803
  1 124 93      53.37624007
  1 123 93      52.38490286
  1 123 94      51.42314031
  1 122 94      50.55630749
  1 122 95      49.76201412
  1 122 96      48.61065953
  1 121 96      47.85044162
  1 121 97      46.79301659
  1 120 97      45.96079142
  1 120 98      45.07751124
  1 120 99      43.72413109
  1 119 99      43.01682334
  1 120 100      42.28180092
  1 120 101      41.62960302
  1 119 101      40.71832693
  1 119 102      39.76023962
  1 118 102      38.94138569
  1 118 103      37.75835107
  1 117 103      37.03202398
  1 117 104      36.09730493
  1 117 105      35.00063402
  1 116 105      34.26198790
  1 116 106      33.31618547
  1 116 107      32.09117027
  1 115 107      30.78855215
  1 114 107      29.48347171
  1 114 108      28.72760460
  1 113 108      26.01430237
  1 113 109      24.90437409
  1 112 109      24.41287815
  1 113 110      23.79545382
  1 113 111      23.04320384
  1 114 111      22.55562254
  1 114 112      21.94127563
  1 113 112      21.46370642
  1 113 113      20.68161618
  1 112 113      20.03634214
  1 112 114      19.46714694
  1 111 114      18.47653012
  1 111 115      17.78115233
  1 110 115      17.21477934
  1 110 116      16.43250745
  1 110 117      15.50741351
  1 110 118      14.59095175
  1 110 119      13.67576777
  1 110 120      12.78411048
  1 110 121      11.88049001
  1 110 122      10.97000926
  1 110 123      10.07156670
  1 110 124       9.17612808
  1 110 125       8.26804995
  1 109 125       7.80741364
  1 109 126       7.35299812
  1 109 127       5.82780673
  1 109 128       5.48561750
  1 109 129       5.14104112
  1 109 130       4.84962230
  1 110 130       4.66408529
  1 110 131       4.40237490
  1 110 132       4.03773240
  1 110 133       3.69337851
  1 110 134       3.34957675
  1 110 135       3.00179393
  1 110 136       2.64573925
  1 110 137       2.28507314
  1 110 138       2.06329761
  1 109 138       1.87808594
  1 109 139       1.55668530
  1 109 140       1.20537998
  1 109 141       0.85368857
  1 109 142       0.64882223
  1 108 142       0.46602280
END period  1

