BEGIN options
  SAVE_FLOWS
END options

BEGIN dimensions
  MAXBOUND  105
END dimensions

BEGIN period  1
  1 175 50     128.32434415       0.00500000     126.32434415
  1 175 51     124.57751252       0.00500000     122.57751252
  1 175 52     120.86597304       0.00500000     118.86597304
  1 174 56     102.92555261       0.00500000     100.92555261
  1 173 56     101.44796863       0.00500000      99.44796863
  1 172 56     100.45434921       0.00500000      98.45434921
  1 172 57      99.66953100       0.00500000      97.66953100
  1 171 57      98.22225395       0.00500000      96.22225395
  1 171 58      94.83692743       0.00500000      92.83692743
  1 171 59      92.90748058       0.00500000      90.90748058
  1 171 60      90.98976785       0.00500000      88.98976785
  1 171 61      89.06844248       0.00500000      87.06844248
  1 171 62      87.26964538       0.00500000      85.26964538
  1 170 62      86.31117902       0.00500000      84.31117902
  1 170 63      83.63216097       0.00500000      81.63216097
  1 170 64      82.32491291       0.00500000      80.32491291
  1 170 65      80.91597485       0.00500000      78.91597485
  1 170 66      79.92169007       0.00500000      77.92169007
  1 169 66      79.09512232       0.00500000      77.09512232
  1 169 67      78.11720055       0.00500000      76.11720055
  1 168 67      76.34264875       0.00500000      74.34264875
  1 162 76      59.17689264       0.00500000      57.17689264
  1 162 77      58.63279705       0.00500000      56.63279705
  1 161 77      57.74013944       0.00500000      55.74013944
  1 161 78      56.66187996       0.00500000      54.66187996
  1 160 80      54.44716086       0.00500000      52.44716086
  1 159 80      53.61333767       0.00500000      51.61333767
  1 159 81      52.99257540       0.00500000      50.99257540
  1 158 81      52.22452614       0.00500000      50.22452614
  1 158 82      51.43070421       0.00500000      49.43070421
  1 157 82      50.78855425       0.00500000      48.78855425
  1 157 83      49.92071561       0.00500000      47.92071561
  1 156 83      49.27315149       0.00500000      47.27315149
  1 156 84      46.90194934       0.00500000      44.90194934
  1 155 84      45.97274525       0.00500000      43.97274525
  1 155 85      45.09547608       0.00500000      43.09547608
  1 155 86      44.03706292       0.00500000      42.03706292
  1 154 86      43.24120813       0.00500000      41.24120813
  1 154 87      42.23169008       0.00500000      40.23169008
  1 155 87      41.51298921       0.00500000      39.51298921
  1 154 88      38.95375477       0.00500000      36.95375477
  1 154 89      38.34150836       0.00500000      36.34150836
  1 153 89      37.68502888       0.00500000      35.68502888
  1 152 89      37.06276002       0.00500000      35.06276002
  1 152 90      36.49795138       0.00500000      34.49795138
  1 152 91      35.77256652       0.00500000      33.77256652
  1 151 91      35.29554650       0.00500000      33.29554650
  1 151 92      34.46401582       0.00500000      32.46401582
  1 151 93      33.83846530       0.00500000      31.83846530
  1 150 93      33.40103642       0.00500000      31.40103642
  1 150 94      32.49504320       0.00500000      30.49504320
  1 149 94      31.50194587       0.00500000      29.50194587
  1 149 95      31.05244544       0.00500000      29.05244544
  1 148 94      30.96045885       0.00500000      28.96045885
  1 148 95      30.50341630       0.00500000      28.50341630
  1 147 95      29.68884893       0.00500000      27.68884893
  1 146 95      28.94819201       0.00500000      26.94819201
  1 146 96      27.14776905       0.00500000      25.14776905
  1 146 97      26.00306991       0.00500000      24.00306991
  1 146 98      25.29405626       0.00500000      23.29405626
  1 147 98      24.68907366       0.00500000      22.68907366
  1 147 99      23.69595245       0.00500000      21.69595245
  1 147 100      22.73190553       0.00500000      20.73190553
  1 146 100      22.08439241       0.00500000      20.08439241
  1 146 101      21.42065389       0.00500000      19.42065389
  1 145 101      19.85528905       0.00500000      17.85528905
  1 144 101      19.82738795       0.00500000      17.82738795
  1 144 102      19.79786059       0.00500000      17.79786059
  1 143 102      19.76249243       0.00500000      17.76249243
  1 143 103      19.23947293       0.00500000      17.23947293
  1 143 104      18.47316457       0.00500000      16.47316457
  1 142 104      18.06109483       0.00500000      16.06109483
  1 143 105      17.76137205       0.00500000      15.76137205
  1 142 105      17.35572191       0.00500000      15.35572191
  1 143 106      16.72585257       0.00500000      14.72585257
  1 143 107      15.90702595       0.00500000      13.90702595
  1 143 108      15.10429563       0.00500000      13.10429563
  1 143 109      14.41420742       0.00500000      12.41420742
  1 142 109      13.99836019       0.00500000      11.99836019
  1 142 110      13.46826318       0.00500000      11.46826318
  1 142 111      12.66385458       0.00500000      10.66385458
  1 142 112      11.85619997       0.00500000       9.85619997
  1 142 113      11.03587823       0.00500000       9.03587823
  1 142 114      10.21397723       0.00500000       8.21397723
  1 142 115       8.74407608       0.00500000       6.74407608
  1 142 116       8.23405332       0.00500000       6.23405332
  1 142 117       7.71703938       0.00500000       5.71703938
  1 142 118       7.17302759       0.00500000       5.17302759
  1 142 119       6.81907267       0.00500000       4.81907267
  1 143 119       6.53471373       0.00500000       4.53471373
  1 143 120       6.06761761       0.00500000       4.06761761
  1 143 121       5.55369979       0.00500000       3.55369979
  1 143 122       5.04012437       0.00500000       3.04012437
  1 143 123       4.52073632       0.00500000       2.52073632
  1 143 124       3.98863480       0.00500000       1.98863480
  1 143 125       3.69455479       0.00500000       1.69455479
  1 142 125       3.42372942       0.00500000       1.42372942
  1 142 126       2.90227240       0.00500000       0.90227240
  1 142 127       2.42342769       0.00500000       0.42342769
  1 141 127       2.15889783       0.00500000       0.15889783
  1 141 128       1.83558872       0.00500000      -0.16441128
  1 141 129       1.31206107       0.00500000      -0.68793893
  1 141 130       0.77548985       0.00500000      -1.22451015
  1 141 131       0.47422019       0.00500000      -1.52577981
  1 140 131       0.27343645       0.00500000      -1.72656355
END period  1

