BEGIN options
  SAVE_FLOWS
END options

BEGIN dimensions
  MAXBOUND  117
END dimensions

BEGIN period  1
  1 175 49     130.07810611       0.01000000     128.07810611
  1 175 50     127.32434415       0.01000000     125.32434415
  1 175 51     123.57751252       0.01000000     121.57751252
  1 175 52     119.86597304       0.01000000     117.86597304
  1 175 53     116.21720059       0.01000000     114.21720059
  1 175 55     108.55237756       0.01000000     106.55237756
  1 175 56     103.21751237       0.01000000     101.21751237
  1 174 56     101.92555261       0.01000000      99.92555261
  1 173 56     100.44796863       0.01000000      98.44796863
  1 172 56      99.45434921       0.01000000      97.45434921
  1 172 57      98.66953100       0.01000000      96.66953100
  1 171 57      97.22225395       0.01000000      95.22225395
  1 171 58      93.83692743       0.01000000      91.83692743
  1 171 59      91.90748058       0.01000000      89.90748058
  1 171 60      89.98976785       0.01000000      87.98976785
  1 171 61      88.06844248       0.01000000      86.06844248
  1 171 62      86.26964538       0.01000000      84.26964538
  1 170 62      85.31117902       0.01000000      83.31117902
  1 170 63      82.63216097       0.01000000      80.63216097
  1 170 64      81.32491291       0.01000000      79.32491291
  1 170 65      79.91597485       0.01000000      77.91597485
  1 170 66      78.92169007       0.01000000      76.92169007
  1 169 66      78.09512232       0.01000000      76.09512232
  1 169 67      77.11720055       0.01000000      75.11720055
  1 168 67      75.34264875       0.01000000      73.34264875
  1 168 68      74.35052177       0.01000000      72.35052177
  1 167 68      73.63053462       0.01000000      71.63053462
  1 166 70      70.85833282       0.01000000      68.85833282
  1 164 76      61.21088688       0.01000000      59.21088688
  1 165 76      60.14914327       0.01000000      58.14914327
  1 164 77      59.66905403       0.01000000      57.66905403
  1 162 76      58.17689264       0.01000000      56.17689264
  1 162 77      57.63279705       0.01000000      55.63279705
  1 161 77      56.74013944       0.01000000      54.74013944
  1 161 78      55.66187996       0.01000000      53.66187996
  1 161 79      54.79085870       0.01000000      52.79085870
  1 160 79      54.22655982       0.01000000      52.22655982
  1 160 80      53.44716086       0.01000000      51.44716086
  1 159 80      52.61333767       0.01000000      50.61333767
  1 159 81      51.99257540       0.01000000      49.99257540
  1 158 81      51.22452614       0.01000000      49.22452614
  1 158 82      50.43070421       0.01000000      48.43070421
  1 157 82      49.78855425       0.01000000      47.78855425
  1 157 83      48.92071561       0.01000000      46.92071561
  1 156 83      48.27315149       0.01000000      46.27315149
  1 156 84      45.90194934       0.01000000      43.90194934
  1 155 84      44.97274525       0.01000000      42.97274525
  1 155 85      44.09547608       0.01000000      42.09547608
  1 155 86      43.03706292       0.01000000      41.03706292
  1 154 86      42.24120813       0.01000000      40.24120813
  1 154 87      41.23169008       0.01000000      39.23169008
  1 155 87      40.51298921       0.01000000      38.51298921
  1 154 88      37.95375477       0.01000000      35.95375477
  1 154 89      37.34150836       0.01000000      35.34150836
  1 153 89      36.68502888       0.01000000      34.68502888
  1 152 89      36.06276002       0.01000000      34.06276002
  1 152 90      35.49795138       0.01000000      33.49795138
  1 152 91      34.77256652       0.01000000      32.77256652
  1 151 91      34.29554650       0.01000000      32.29554650
  1 151 92      33.46401582       0.01000000      31.46401582
  1 151 93      32.83846530       0.01000000      30.83846530
  1 150 93      32.40103642       0.01000000      30.40103642
  1 150 94      31.49504320       0.01000000      29.49504320
  1 149 94      30.50194587       0.01000000      28.50194587
  1 149 95      30.05244544       0.01000000      28.05244544
  1 148 94      29.96045885       0.01000000      27.96045885
  1 148 95      29.50341630       0.01000000      27.50341630
  1 147 95      28.68884893       0.01000000      26.68884893
  1 146 95      27.94819201       0.01000000      25.94819201
  1 146 96      26.14776905       0.01000000      24.14776905
  1 146 97      25.00306991       0.01000000      23.00306991
  1 146 98      24.29405626       0.01000000      22.29405626
  1 147 98      23.68907366       0.01000000      21.68907366
  1 147 99      22.69595245       0.01000000      20.69595245
  1 147 100      21.73190553       0.01000000      19.73190553
  1 146 100      21.08439241       0.01000000      19.08439241
  1 146 101      20.42065389       0.01000000      18.42065389
  1 145 101      18.85528905       0.01000000      16.85528905
  1 144 101      18.82738795       0.01000000      16.82738795
  1 144 102      18.79786059       0.01000000      16.79786059
  1 143 102      18.76249243       0.01000000      16.76249243
  1 143 103      18.23947293       0.01000000      16.23947293
  1 143 104      17.47316457       0.01000000      15.47316457
  1 142 104      17.06109483       0.01000000      15.06109483
  1 143 105      16.76137205       0.01000000      14.76137205
  1 142 105      16.35572191       0.01000000      14.35572191
  1 143 106      15.72585257       0.01000000      13.72585257
  1 143 107      14.90702595       0.01000000      12.90702595
  1 143 108      14.10429563       0.01000000      12.10429563
  1 143 109      13.41420742       0.01000000      11.41420742
  1 142 109      12.99836019       0.01000000      10.99836019
  1 142 110      12.46826318       0.01000000      10.46826318
  1 142 111      11.66385458       0.01000000       9.66385458
  1 142 112      10.85619997       0.01000000       8.85619997
  1 142 113      10.03587823       0.01000000       8.03587823
  1 142 114       9.21397723       0.01000000       7.21397723
  1 142 115       7.77283158       0.01000000       5.77283158
  1 142 116       7.32011474       0.01000000       5.32011474
  1 142 117       6.86119226       0.01000000       4.86119226
  1 142 118       6.37830539       0.01000000       4.37830539
  1 142 119       6.06412068       0.01000000       4.06412068
  1 143 119       5.81171219       0.01000000       3.81171219
  1 143 120       5.39709878       0.01000000       3.39709878
  1 143 121       4.94092454       0.01000000       2.94092454
  1 143 122       4.48505422       0.01000000       2.48505422
  1 143 123       4.02402437       0.01000000       2.02402437
  1 143 124       3.55170954       0.01000000       1.55170954
  1 143 125       3.29067223       0.01000000       1.29067223
  1 142 125       3.05027667       0.01000000       1.05027667
  1 142 126       2.58741034       0.01000000       0.58741034
  1 142 127       2.16236840       0.01000000       0.16236840
  1 141 127       1.92756100       0.01000000      -0.07243900
  1 141 128       1.64057875       0.01000000      -0.35942125
  1 141 129       1.17587443       0.01000000      -0.82412557
  1 141 130       0.69959211       0.01000000      -1.30040789
  1 141 131       0.43217298       0.01000000      -1.56782702
  1 140 131       0.25394920       0.01000000      -1.74605080
END period  1

