BEGIN options
  SAVE_FLOWS
END options

BEGIN dimensions
  MAXBOUND  107
END dimensions

BEGIN period  1
  1 137 63     128.97350778
  1 137 64     126.87944760
  1 136 64     125.64693391
  1 136 65     124.29014269
  1 136 66     121.92190819
  1 136 67     120.37822040
  1 137 67     119.16996220
  1 136 69     114.31428407
  1 136 70     112.19495792
  1 135 70     109.81563391
  1 134 70     106.94548772
  1 133 70     104.78002560
  1 133 71     102.84313108
  1 133 72     100.43843568
  1 133 73      98.12533719
  1 133 74      95.81162221
  1 133 75      93.49759583
  1 133 76      91.19151157
  1 133 77      88.88938147
  1 133 78      87.09867686
  1 132 78      85.79529441
  1 132 79      83.75867692
  1 132 80      82.01730247
  1 131 80      80.45255187
  1 131 81      78.35025172
  1 130 81      76.92107057
  1 127 87      60.42557285
  1 128 89      58.18275378
  1 128 90      57.39292459
  1 126 89      55.29987660
  1 126 90      54.56098047
  1 125 90      53.57374828
  1 125 91      52.39693060
  1 125 92      51.35181093
  1 124 92      50.75272048
  1 124 93      49.88519637
  1 123 93      48.98643084
  1 123 94      48.11447827
  1 122 94      47.32859083
  1 122 95      46.60846907
  1 122 96      45.56462867
  1 121 96      44.87540038
  1 121 97      43.91671835
  1 120 97      43.16220688
  1 120 98      42.36140795
  1 120 99      41.13440726
  1 119 99      40.49314835
  1 120 100      39.82676277
  1 120 101      39.23546751
  1 119 101      38.40928695
  1 119 102      37.54066641
  1 118 102      36.79827757
  1 118 103      35.72571545
  1 117 103      35.06721323
  1 117 104      34.21977882
  1 117 105      33.22551571
  1 116 105      32.55584482
  1 116 106      31.69836200
  1 116 107      30.58773948
  1 115 107      29.40676064
  1 114 107      28.22354941
  1 114 108      27.53826564
  1 113 108      25.01430237
  1 113 109      23.90437409
  1 112 109      23.41287815
  1 113 110      22.79545382
  1 113 111      22.04320384
  1 114 111      21.55562254
  1 114 112      20.94127563
  1 113 112      20.46370642
  1 113 113      19.68161618
  1 112 113      19.03634214
  1 112 114      18.46714694
  1 111 114      17.47653012
  1 111 115      16.78115233
  1 110 115      16.21477934
  1 110 116      15.43250745
  1 110 117      14.50741351
  1 110 118      13.59095175
  1 110 119      12.67576777
  1 110 120      11.78411048
  1 110 121      10.88049001
  1 110 122       9.97000926
  1 110 123       9.07156670
  1 110 124       8.17612808
  1 110 125       7.26804995
  1 109 125       6.80741364
  1 109 126       6.35299812
  1 109 127       4.85699203
  1 109 128       4.57280097
  1 109 129       4.28662737
  1 109 130       4.04460157
  1 110 130       3.89051151
  1 110 131       3.67315882
  1 110 132       3.37032013
  1 110 133       3.08433130
  1 110 134       2.79880103
  1 110 135       2.50996445
  1 110 136       2.21425802
  1 110 137       1.91472176
  1 110 138       1.73053531
  1 109 138       1.57671544
  1 109 139       1.30978948
  1 109 140       1.01802744
  1 109 141       0.72594475
  1 109 142       0.55580151
  1 108 142       0.40398504
END period  1

