BEGIN options
  SAVE_FLOWS
END options

BEGIN dimensions
  MAXBOUND  73
END dimensions

BEGIN period  1
  1 91 39     129.77105698
  1 91 40     127.68151350
  1 91 41     123.97420045
  1 91 42     120.26176898
  1 91 43     116.36131041
  1 91 44     113.02399310
  1 90 44     109.65334717
  1 89 44     105.76633206
  1 89 45     102.13828296
  1 89 46      98.52947639
  1 89 47      94.93719712
  1 89 48      91.35633594
  1 89 49      88.60254377
  1 88 49      86.61811089
  1 88 50      83.28085709
  1 88 51      80.94230373
  1 87 51      78.73705724
  1 86 53      69.75032693
  1 85 55      60.41819025
  1 85 56      57.74653590
  1 84 56      55.21671118
  1 84 57      54.08138210
  1 83 57      53.20709861
  1 83 58      51.47964186
  1 83 59      50.24027660
  1 82 59      48.97959268
  1 82 60      47.65100736
  1 81 60      46.63954717
  1 81 61      45.21993358
  1 80 61      44.11943687
  1 80 62      42.73096721
  1 80 63      40.82166078
  1 80 64      39.82888419
  1 79 64      38.61894561
  1 79 65      37.26551398
  1 78 65      36.34391509
  1 78 66      34.68487181
  1 78 67      33.31538196
  1 77 67      31.88319754
  1 76 67      30.26367808
  1 76 68      29.30005226
  1 75 68      28.12245532
  1 75 69      26.76251786
  1 76 69      25.77341989
  1 76 70      24.46367629
  1 76 71      23.20671455
  1 75 71      21.72805269
  1 74 71      20.63389561
  1 74 72      19.46226018
  1 74 73      18.05461387
  1 73 73      17.20159286
  1 73 74      16.03625723
  1 74 74      15.19232510
  1 74 75      14.09706365
  1 74 76      12.92023352
  1 73 76      12.08309931
  1 73 77      10.78692483
  1 73 78       9.13266713
  1 73 79       7.46709690
  1 73 80       4.77033142
  1 73 81       4.30637784
  1 73 82       3.87709874
  1 74 82       3.61758435
  1 74 83       3.32222609
  1 74 84       3.03332356
  1 73 84       2.80225660
  1 73 85       2.57323673
  1 74 85       2.33290216
  1 73 86       1.90244761
  1 73 87       1.41536410
  1 73 88       0.93947892
  1 73 89       0.62157117
  1 72 89       0.37717846
END period  1

