BEGIN options
  SAVE_FLOWS
END options

BEGIN dimensions
  MAXBOUND  102
END dimensions

BEGIN period  1
  1 137 59     124.54246112
  1 137 60     123.41616354
  1 136 60     122.71854109
  1 136 61     122.00223184
  1 136 62     120.64061494
  1 136 63     119.79689143
  1 137 63     119.10616660
  1 136 64     117.12096321
  1 136 65     115.98107624
  1 135 65     114.80747407
  1 135 66     114.05618354
  1 134 66     112.60005010
  1 133 66     111.20248391
  1 133 67     109.92597643
  1 133 68     108.59507069
  1 133 69     107.27138476
  1 133 70     105.94673082
  1 133 71     104.62525888
  1 133 72     103.30615795
  1 133 73     102.11426387
  1 132 73     101.40188638
  1 132 74     100.45062355
  1 132 75      99.33647765
  1 131 75      98.44280804
  1 131 76      97.31207857
  1 130 76      96.48211604
  1 127 82      86.24832170
  1 128 84      83.47795247
  1 127 84      81.96774347
  1 126 84      80.23783402
  1 125 84      79.06920091
  1 125 85      78.01726698
  1 125 86      76.61226107
  1 124 87      74.87434644
  1 124 88      73.88802969
  1 123 88      72.79724284
  1 123 89      71.80589124
  1 122 89      70.97131898
  1 122 90      69.72743922
  1 121 90      68.90361320
  1 121 91      67.81365602
  1 120 91      66.90505619
  1 120 92      65.99460149
  1 120 93      64.50318018
  1 119 93      63.73365335
  1 120 94      62.98367168
  1 119 94      62.29379342
  1 119 95      61.30623012
  1 118 95      60.23487324
  1 118 96      59.26675474
  1 118 97      58.18919074
  1 117 97      57.42614688
  1 117 98      56.10566140
  1 117 99      55.19474985
  1 116 99      54.50787273
  1 116 100      52.97600568
  1 116 101      51.99581792
  1 115 101      51.21009076
  1 114 101      49.67828252
  1 113 101      48.23688516
  1 113 102      46.94443278
  1 112 102      46.22089618
  1 113 103      45.33693745
  1 113 104      44.04480622
  1 114 104      43.28149536
  1 114 105      42.42882138
  1 113 105      41.75153841
  1 113 106      40.74484524
  1 113 107      39.74574180
  1 112 107      38.87693772
  1 111 107      37.50460730
  1 111 108      36.53946768
  1 110 108      35.70416925
  1 110 109      34.55079693
  1 110 110      33.18911380
  1 110 111      31.83677150
  1 110 112      30.48610768
  1 110 113      29.16680310
  1 110 114      27.82428302
  1 110 115      26.48178153
  1 110 116      25.16061679
  1 110 117      23.81921527
  1 110 118      22.90967386
  1 109 118      22.24129898
  1 109 119      21.13345645
  1 109 120      19.80716253
  1 109 121      18.48088876
  1 109 122      17.31549704
  1 110 122      16.60108995
  1 110 123      15.63707059
  1 110 124      14.22753261
  1 110 125      12.89501020
  1 110 126      11.56625296
  1 110 127      10.22109326
  1 110 128       8.83411329
  1 110 129       7.55677083
  1 109 129       6.84593751
  1 109 130       6.00995385
  1 109 131       4.63321287
  1 109 132       3.28237559
  1 109 133       2.24917131
  1 108 133       1.54356165
END period  1

