BEGIN options
  SAVE_FLOWS
END options

BEGIN dimensions
  MAXBOUND  135
END dimensions

BEGIN period  1
  1 182 78     124.87343354
  1 182 79     124.25040845
  1 182 80     123.22181358
  1 182 81     122.16689122
  1 182 82     121.35889050
  1 181 82     120.86075937
  1 182 83     120.13401030
  1 181 86     116.33984057
  1 181 87     115.61516214
  1 180 87     114.32883837
  1 179 87     113.21959631
  1 179 88     112.64252750
  1 178 88     112.00912553
  1 177 88     111.00355804
  1 177 89     110.09382198
  1 177 90     109.09369681
  1 177 91     108.10191341
  1 177 92     107.10698376
  1 177 93     106.11197259
  1 177 94     105.12098419
  1 177 95     104.12970956
  1 177 96     103.14109217
  1 177 97     102.12822625
  1 177 98     101.59446601
  1 176 98     101.01721078
  1 176 99      99.97723262
  1 175 99      99.36183503
  1 175 100      98.55688075
  1 175 101      97.87945699
  1 174 101      97.23816595
  1 173 102      95.71829571
  1 170 112      83.05890308
  1 169 112      82.31654572
  1 168 111      81.03525236
  1 168 112      80.38586219
  1 167 112      79.25988609
  1 167 113      78.53558267
  1 166 113      77.97905667
  1 166 114      77.12627617
  1 166 115      76.09252343
  1 166 116      75.28925748
  1 165 116      74.58433612
  1 165 117      73.88802969
  1 164 117      73.02170494
  1 164 118      72.30084215
  1 163 118      71.64179998
  1 163 119      70.75513841
  1 162 119      70.15515014
  1 162 120      69.27570262
  1 162 121      68.61181507
  1 161 121      67.93165882
  1 161 122      67.13349977
  1 160 122      66.48210790
  1 160 123      65.60219909
  1 159 123      64.98768139
  1 159 124      64.18760868
  1 159 125      63.10669224
  1 159 126      61.98317334
  1 159 127      61.29074545
  1 158 127      60.51236758
  1 157 127      59.75289921
  1 157 128      59.06730956
  1 157 129      58.18919074
  1 156 129      57.60287887
  1 156 130      56.73910124
  1 156 131      55.93707921
  1 155 131      55.29320898
  1 155 132      54.42286756
  1 155 133      53.40972091
  1 154 133      52.70485858
  1 154 134      52.04647925
  1 153 134      51.01846728
  1 152 134      49.86750211
  1 151 134      49.12740383
  1 151 135      48.55136503
  1 150 135      47.66634178
  1 150 136      46.66734873
  1 150 137      45.54473749
  1 150 138      44.89827159
  1 151 138      44.28430941
  1 151 139      43.21221130
  1 151 140      42.17777960
  1 151 141      41.17871936
  1 150 141      40.49069581
  1 150 142      39.77537038
  1 149 142      38.67428416
  1 148 142      38.06573213
  1 148 143      37.36715685
  1 147 143      36.57213686
  1 147 144      35.85308961
  1 147 145      34.94492524
  1 146 145      34.41246624
  1 146 146      33.68711295
  1 146 147      32.68323059
  1 146 148      31.99858380
  1 147 148      31.48169344
  1 147 149      30.65087016
  1 147 150      29.66212699
  1 147 151      28.73257187
  1 146 151      28.23344854
  1 146 152      27.65572111
  1 146 153      26.64616653
  1 146 154      25.65558516
  1 146 155      24.66282149
  1 146 156      23.65183058
  1 146 157      22.63740331
  1 146 158      21.63313432
  1 146 159      20.93862800
  1 145 159      20.44117274
  1 145 160      19.64241468
  1 145 161      18.65560534
  1 146 161      18.16086271
  1 146 162      17.64442033
  1 146 163      16.56137417
  1 146 164      15.72050108
  1 147 164      15.16887880
  1 147 165      14.39275214
  1 147 166      13.39730957
  1 147 167      12.64937105
  1 146 167      12.14712901
  1 146 168      11.40109076
  1 146 169      10.76402347
  1 147 169      10.24704603
  1 147 170       9.45221544
  1 146 170       8.93279815
  1 146 171       8.30823544
  1 146 172       7.24681690
  1 146 173       6.37739118
  1 145 173       5.84677736
  1 145 174       5.14163071
  1 145 175       4.12664889
  1 145 176       3.11352093
  1 145 177       2.24917131
  1 144 177       1.71977486
  1 144 178       1.02366587
END period  1

