BEGIN options
  SAVE_FLOWS
END options

BEGIN dimensions
  MAXBOUND  135
END dimensions

BEGIN period  1
  1 182 78     132.76003768
  1 182 79     131.57881998
  1 182 80     129.62866663
  1 182 81     127.62859795
  1 182 82     126.09667769
  1 181 82     125.15225134
  1 182 83     123.77437927
  1 181 86     116.58086408
  1 181 87     115.20691782
  1 180 87     112.76812612
  1 179 87     110.66507061
  1 179 88     109.57098320
  1 178 88     108.37009158
  1 177 88     106.46359673
  1 177 89     104.73879245
  1 177 90     102.84261591
  1 177 91     100.96225486
  1 177 92      99.07592871
  1 177 93      97.18944801
  1 177 94      95.31059424
  1 177 95      93.43119778
  1 177 96      91.55683931
  1 177 97      89.63650708
  1 177 98      88.62453011
  1 176 98      87.53008927
  1 176 99      85.55835390
  1 175 99      84.39159746
  1 175 100      82.86545307
  1 175 101      81.58109881
  1 174 101      80.36524996
  1 173 102      77.48366837
  1 170 112      60.67732371
  1 169 112      60.04974874
  1 168 111      58.96656741
  1 168 112      58.41758516
  1 167 112      57.46570613
  1 167 113      56.85339362
  1 166 113      56.38291700
  1 166 114      55.66199239
  1 166 115      54.78807725
  1 166 116      54.10901130
  1 165 116      53.51308403
  1 165 117      52.92443966
  1 164 117      52.19206499
  1 164 118      51.58266113
  1 163 118      51.02551926
  1 163 119      50.27595223
  1 162 119      49.76873342
  1 162 120      49.02526501
  1 162 121      48.46402696
  1 161 121      47.88903564
  1 161 122      47.21428697
  1 160 122      46.66361253
  1 160 123      45.91975415
  1 159 123      45.40025244
  1 159 124      44.72388599
  1 159 125      43.81009955
  1 159 126      42.86029778
  1 159 127      42.27493225
  1 158 127      41.61690623
  1 157 127      40.97486593
  1 157 128      40.39528133
  1 157 129      39.65293617
  1 156 129      39.15727914
  1 156 130      38.42705776
  1 156 131      37.74904340
  1 155 131      37.20472761
  1 155 132      36.46895733
  1 155 133      35.61246219
  1 154 133      35.01658482
  1 154 134      34.46000330
  1 153 134      33.59094130
  1 152 134      32.61793697
  1 151 134      31.99227179
  1 151 135      31.50529941
  1 150 135      30.75711738
  1 150 136      29.91258743
  1 150 137      28.96355298
  1 150 138      28.41704285
  1 151 138      27.89801076
  1 151 139      26.99167916
  1 151 140      26.11719004
  1 151 141      25.27260328
  1 150 141      24.69096111
  1 150 142      24.08623843
  1 149 142      23.15540083
  1 148 142      22.64094237
  1 148 143      22.05037996
  1 147 143      21.37828500
  1 147 144      20.77041596
  1 147 145      20.00267086
  1 146 145      19.55254003
  1 146 146      18.93933999
  1 146 147      18.09067670
  1 146 148      17.51188917
  1 147 148      17.07491977
  1 147 149      16.37255738
  1 147 150      15.53669248
  1 147 151      14.75086405
  1 146 151      14.32891457
  1 146 152      13.84051465
  1 146 153      12.98705618
  1 146 154      12.14963730
  1 146 155      11.31037355
  1 146 156      10.45570083
  1 146 157       9.59812307
  1 146 158       8.74913294
  1 146 159       7.92835066
  1 145 159       7.74236645
  1 145 160       7.44373379
  1 145 161       7.07479416
  1 146 161       6.88982413
  1 146 162       6.69674118
  1 146 163       6.29182137
  1 146 164       5.97744312
  1 147 164       5.77120741
  1 147 165       5.48103598
  1 147 166       5.10886864
  1 147 167       4.82923595
  1 146 167       4.64146210
  1 146 168       4.36253986
  1 146 169       4.12435872
  1 147 169       3.93107573
  1 147 170       3.63391144
  1 146 170       3.43971625
  1 146 171       3.20621023
  1 146 172       2.80937637
  1 146 173       2.48432310
  1 145 173       2.28594186
  1 145 174       2.02230781
  1 145 175       1.64283531
  1 145 176       1.26405591
  1 145 177       0.94090045
  1 144 177       0.74297435
  1 144 178       0.48271922
END period  1

