BEGIN options
  SAVE_FLOWS
END options

BEGIN dimensions
  MAXBOUND  78
END dimensions

BEGIN period  1
  1 91 39     131.77105698
  1 91 40     129.68151350
  1 91 41     125.97420045
  1 91 42     122.26176898
  1 91 43     118.36131041
  1 91 44     115.02399310
  1 90 44     111.65334717
  1 89 44     107.76633206
  1 89 45     104.13828296
  1 89 46     100.52947639
  1 89 47      96.93719712
  1 89 48      93.35633594
  1 89 49      90.60254377
  1 88 49      88.61811089
  1 88 50      85.28085709
  1 88 51      82.94230373
  1 87 51      80.73705724
  1 87 52      76.62503614
  1 87 53      73.62872086
  1 86 53      71.75032693
  1 87 54      70.35536360
  1 86 54      65.20028097
  1 86 55      63.93821634
  1 85 55      62.41819025
  1 85 56      59.74653590
  1 84 56      57.21671118
  1 84 57      56.08138210
  1 83 57      55.20709861
  1 83 58      53.47964186
  1 83 59      52.24027660
  1 82 59      50.97959268
  1 82 60      49.65100736
  1 81 60      48.63954717
  1 81 61      47.21993358
  1 80 61      46.11943687
  1 80 62      44.73096721
  1 80 63      42.82166078
  1 80 64      41.82888419
  1 79 64      40.61894561
  1 79 65      39.26551398
  1 78 65      38.34391509
  1 78 66      36.68487181
  1 78 67      35.31538196
  1 77 67      33.88319754
  1 76 67      32.26367808
  1 76 68      31.30005226
  1 75 68      30.12245532
  1 75 69      28.76251786
  1 76 69      27.77341989
  1 76 70      26.46367629
  1 76 71      25.20671455
  1 75 71      23.72805269
  1 74 71      22.63389561
  1 74 72      21.46226018
  1 74 73      20.05461387
  1 73 73      19.20159286
  1 73 74      18.03625723
  1 74 74      17.19232510
  1 74 75      16.09706365
  1 74 76      14.92023352
  1 73 76      14.08309931
  1 73 77      12.78692483
  1 73 78      11.13266713
  1 73 79       9.46709690
  1 73 80       6.67658914
  1 73 81       6.02326676
  1 73 82       5.41877170
  1 74 82       5.05333306
  1 74 83       4.63742041
  1 74 84       4.23059849
  1 73 84       3.90521848
  1 73 85       3.58272111
  1 74 85       3.24429080
  1 73 86       2.63814051
  1 73 87       1.95224740
  1 73 88       1.28212338
  1 73 89       0.83445736
  1 72 89       0.49031253
END period  1

