BEGIN options
  SAVE_FLOWS
END options

BEGIN dimensions
  MAXBOUND  169
END dimensions

BEGIN period  1
  1 227 104     130.65659040
  1 227 105     129.89553417
  1 228 105     129.18122942
  1 228 106     128.51080586
  1 227 106     127.76541631
  1 227 107     126.61903403
  1 227 108     125.10324402
  1 227 109     123.64797680
  1 227 110     122.19888662
  1 227 111     120.71723005
  1 227 114     115.97599184
  1 227 115     114.41647580
  1 226 116     112.51124500
  1 225 116     110.76853204
  1 224 116     109.02851590
  1 223 116     107.47638041
  1 223 117     106.56642702
  1 222 117     105.42508041
  1 221 117     104.08380535
  1 221 118     102.94004631
  1 221 119     101.49233013
  1 221 120     100.05357372
  1 221 121      98.63058879
  1 221 122      97.20351517
  1 221 123      95.76929813
  1 221 124      94.33698571
  1 221 125      92.91203011
  1 221 126      91.48553078
  1 221 127      90.06151655
  1 221 128      88.64041718
  1 221 129      87.18646131
  1 221 130      86.28795815
  1 220 130      85.45074922
  1 220 131      83.95427429
  1 220 132      83.00109502
  1 219 132      82.05359730
  1 219 133      80.81647454
  1 218 133      79.87411201
  1 218 134      78.56840543
  1 217 134      77.61084777
  1 213 148      59.23536526
  1 213 149      58.70592708
  1 212 149      58.22403546
  1 210 148      56.55026444
  1 210 149      56.07871195
  1 209 149      55.32635793
  1 208 149      54.82057647
  1 208 150      54.33531047
  1 208 151      53.61736204
  1 208 152      52.95350041
  1 208 153      52.57965865
  1 207 153      52.22867403
  1 207 154      51.49631177
  1 207 155      51.06582474
  1 206 155      50.59003214
  1 205 155      49.98643084
  1 205 156      49.49513582
  1 204 156      49.00579288
  1 204 157      48.43345686
  1 204 158      47.98622448
  1 203 158      47.58989202
  1 203 159      46.90779810
  1 202 159      46.50895574
  1 202 160      45.98261314
  1 202 161      45.47666315
  1 201 161      45.02395627
  1 201 162      44.46401147
  1 200 162      44.02359710
  1 200 163      43.40753786
  1 199 163      42.99423107
  1 199 164      42.55380644
  1 199 165      41.77477859
  1 199 166      41.05635655
  1 199 167      40.36759675
  1 199 168      39.88133802
  1 198 168      39.42641374
  1 198 169      38.92388153
  1 197 169      38.34825821
  1 197 170      37.79856390
  1 196 170      37.38686004
  1 196 171      36.72950484
  1 196 172      36.32803818
  1 195 172      35.94683899
  1 195 173      35.22352069
  1 195 174      34.72793530
  1 194 174      34.28365150
  1 194 175      33.63954138
  1 194 176      32.96363027
  1 194 177      32.52878252
  1 193 177      32.03393917
  1 193 178      31.53103529
  1 192 178      30.97477075
  1 191 178      30.13986737
  1 190 178      29.53767551
  1 190 179      29.12063237
  1 189 179      28.51211943
  1 188 179      27.77481527
  1 188 180      27.16825572
  1 187 180      26.61117844
  1 187 181      26.21020531
  1 187 182      25.67453881
  1 188 182      25.34386315
  1 188 183      24.87478355
  1 188 184      24.39396301
  1 189 184      24.04571596
  1 189 185      23.51515254
  1 189 186      22.92139988
  1 189 187      22.35858317
  1 188 187      22.00576235
  1 188 188      21.52256245
  1 187 188      21.10444100
  1 187 189      20.69601076
  1 186 189      19.97450868
  1 186 190      19.61150602
  1 185 190      19.15567492
  1 184 190      18.68694448
  1 184 191      18.25603849
  1 184 192      17.75952904
  1 183 192      17.42443742
  1 183 193      16.89117642
  1 183 194      16.28732410
  1 183 195      15.70373936
  1 183 196      15.10966198
  1 183 197      14.50549106
  1 183 198      13.91705592
  1 183 199      13.33836553
  1 183 200      12.75979448
  1 183 201      12.17823974
  1 183 202      11.58248745
  1 183 203      10.98595530
  1 183 204      10.40452116
  1 183 205       9.82615873
  1 183 206       9.24578894
  1 183 207       8.71033376
  1 182 207       8.41640927
  1 182 208       8.06491192
  1 182 209       7.46914077
  1 182 210       6.88225158
  1 182 211       5.89599282
  1 182 212       5.68980741
  1 182 213       5.48565275
  1 182 214       5.28137023
  1 182 215       5.07276241
  1 182 216       4.86148315
  1 182 217       4.66908332
  1 183 217       4.54822512
  1 183 218       4.39734107
  1 183 219       4.17511833
  1 183 220       3.96822270
  1 183 221       3.76311089
  1 183 222       3.55554626
  1 183 223       3.34884065
  1 183 224       3.14439280
  1 183 225       2.93358320
  1 183 226       2.71826551
  1 183 227       2.50265194
  1 183 228       2.31637273
  1 182 228       2.20758333
  1 182 229       2.06492234
  1 182 230       1.84344753
  1 182 231       1.65312852
  1 181 231       1.54634230
  1 181 232       1.41496778
  1 181 233       1.20537998
  1 181 234       0.99579218
  1 181 235       0.78382597
  1 181 236       0.64882223
  1 180 236       0.53865306
  1 180 237       0.34806809
END period  1

