BEGIN options
  SAVE_FLOWS
END options

BEGIN dimensions
  MAXBOUND  135
END dimensions

BEGIN period  1
  1 182 78     129.76003768
  1 182 79     128.57881998
  1 182 80     126.62866663
  1 182 81     124.62859795
  1 182 82     123.09667769
  1 181 82     122.15225134
  1 182 83     120.77437927
  1 181 86     113.58086408
  1 181 87     112.20691782
  1 180 87     109.76812612
  1 179 87     107.66507061
  1 179 88     106.57098320
  1 178 88     105.37009158
  1 177 88     103.46359673
  1 177 89     101.73879245
  1 177 90      99.84261591
  1 177 91      97.96225486
  1 177 92      96.07592871
  1 177 93      94.18944801
  1 177 94      92.31059424
  1 177 95      90.43119778
  1 177 96      88.55683931
  1 177 97      86.63650708
  1 177 98      85.62453011
  1 176 98      84.53008927
  1 176 99      82.55835390
  1 175 99      81.39159746
  1 175 100      79.86545307
  1 175 101      78.58109881
  1 174 101      77.36524996
  1 173 102      74.48366837
  1 170 112      57.67732371
  1 169 112      57.04974874
  1 168 111      55.96656741
  1 168 112      55.41758516
  1 167 112      54.46570613
  1 167 113      53.85339362
  1 166 113      53.38291700
  1 166 114      52.66199239
  1 166 115      51.78807725
  1 166 116      51.10901130
  1 165 116      50.51308403
  1 165 117      49.92443966
  1 164 117      49.19206499
  1 164 118      48.58266113
  1 163 118      48.02551926
  1 163 119      47.27595223
  1 162 119      46.76873342
  1 162 120      46.02526501
  1 162 121      45.46402696
  1 161 121      44.88903564
  1 161 122      44.21428697
  1 160 122      43.66361253
  1 160 123      42.91975415
  1 159 123      42.40025244
  1 159 124      41.72388599
  1 159 125      40.81009955
  1 159 126      39.86029778
  1 159 127      39.27493225
  1 158 127      38.61690623
  1 157 127      37.97486593
  1 157 128      37.39528133
  1 157 129      36.65293617
  1 156 129      36.15727914
  1 156 130      35.42705776
  1 156 131      34.74904340
  1 155 131      34.20472761
  1 155 132      33.46895733
  1 155 133      32.61246219
  1 154 133      32.01658482
  1 154 134      31.46000330
  1 153 134      30.59094130
  1 152 134      29.61793697
  1 151 134      28.99227179
  1 151 135      28.50529941
  1 150 135      27.75711738
  1 150 136      26.91258743
  1 150 137      25.96355298
  1 150 138      25.41704285
  1 151 138      24.89801076
  1 151 139      23.99167916
  1 151 140      23.11719004
  1 151 141      22.27260328
  1 150 141      21.69096111
  1 150 142      21.08623843
  1 149 142      20.15540083
  1 148 142      19.64094237
  1 148 143      19.05037996
  1 147 143      18.37828500
  1 147 144      17.77041596
  1 147 145      17.00267086
  1 146 145      16.55254003
  1 146 146      15.93933999
  1 146 147      15.09067670
  1 146 148      14.51188917
  1 147 148      14.07491977
  1 147 149      13.37255738
  1 147 150      12.53669248
  1 147 151      11.75086405
  1 146 151      11.32891457
  1 146 152      10.84051465
  1 146 153       9.98705618
  1 146 154       9.14963730
  1 146 155       8.31037355
  1 146 156       7.45570083
  1 146 157       6.59812307
  1 146 158       5.74913294
  1 146 159       4.95555927
  1 145 159       4.84020198
  1 145 160       4.65497412
  1 145 161       4.42613815
  1 146 161       4.31140990
  1 146 162       4.19164959
  1 146 163       3.94049680
  1 146 164       3.74550269
  1 147 164       3.61758435
  1 147 165       3.43760460
  1 147 166       3.20676663
  1 147 167       3.03332356
  1 146 167       2.91685624
  1 146 168       2.74385383
  1 146 169       2.59612123
  1 147 169       2.47623685
  1 147 170       2.29191975
  1 146 170       2.17146958
  1 146 171       2.02663672
  1 146 172       1.78049926
  1 146 173       1.57888395
  1 145 173       1.45583736
  1 145 174       1.29231750
  1 145 175       1.05694848
  1 145 176       0.82200936
  1 145 177       0.62157117
  1 144 177       0.49880687
  1 144 178       0.33738281
END period  1

