BEGIN options
  SAVE_FLOWS
END options

BEGIN dimensions
  MAXBOUND  102
END dimensions

BEGIN period  1
  1 137 59     129.12401225
  1 137 60     126.96764275
  1 136 60     125.63199948
  1 136 61     124.26057913
  1 136 62     121.65367558
  1 136 63     120.03831240
  1 137 63     118.71587507
  1 136 64     114.91507489
  1 136 65     112.73268763
  1 135 65     110.48575044
  1 135 66     109.04735615
  1 134 66     106.25949458
  1 133 66     103.58376380
  1 133 67     101.13980774
  1 133 68      98.59170269
  1 133 69      96.05742044
  1 133 70      93.52128486
  1 133 71      90.99124144
  1 133 72      88.46573747
  1 133 73      86.18377921
  1 132 73      84.81988648
  1 132 74      82.99863232
  1 132 75      80.86552799
  1 131 75      79.15453977
  1 131 76      76.98968513
  1 130 76      75.40066823
  1 127 82      60.38838788
  1 128 84      58.05579136
  1 127 84      56.78422502
  1 126 84      55.32767522
  1 125 84      54.34370907
  1 125 85      53.45800135
  1 125 86      52.27501396
  1 124 87      50.81172394
  1 124 88      49.98126460
  1 123 88      49.06284348
  1 123 89      48.22814489
  1 122 89      47.52545143
  1 122 90      46.47812908
  1 121 90      45.78448374
  1 121 91      44.86676119
  1 120 91      44.10173797
  1 120 92      43.33515298
  1 120 93      42.07940551
  1 119 93      41.43147902
  1 120 94      40.80000917
  1 119 94      40.21914522
  1 119 95      39.38763630
  1 118 95      38.48557484
  1 118 96      37.67043806
  1 118 97      36.76315032
  1 117 97      36.12068237
  1 117 98      35.00885951
  1 117 99      34.24188987
  1 116 99      33.66355282
  1 116 100      32.37375082
  1 116 101      31.54845196
  1 115 101      30.88688512
  1 114 101      29.59713264
  1 113 101      28.38350436
  1 113 102      27.29528483
  1 112 102      26.68608120
  1 113 103      25.94180530
  1 113 104      24.85385617
  1 114 104      24.21116341
  1 114 105      23.49322865
  1 113 105      22.92296968
  1 113 106      22.07535379
  1 113 107      21.23412830
  1 112 107      20.50261232
  1 111 107      19.34713704
  1 111 108      18.53450842
  1 110 108      17.83120354
  1 110 109      16.86008669
  1 110 110      15.71357621
  1 110 111      14.57493055
  1 110 112      13.43769812
  1 110 113      12.32686955
  1 110 114      11.19649399
  1 110 115      10.06613409
  1 110 116       8.95373931
  1 110 117       7.82430556
  1 110 118       7.05848954
  1 109 118       6.49573101
  1 109 119       4.84973220
  1 109 120       4.55164840
  1 109 121       4.25356913
  1 109 122       3.99164801
  1 110 122       3.83108543
  1 110 123       3.61442263
  1 110 124       3.29762978
  1 110 125       2.99814613
  1 110 126       2.69950871
  1 110 127       2.39718484
  1 110 128       2.08546189
  1 110 129       1.79837990
  1 109 129       1.63862052
  1 109 130       1.45073368
  1 109 131       1.14131193
  1 109 132       0.83771203
  1 109 133       0.60549996
  1 108 133       0.44691459
END period  1

