BEGIN options
  SAVE_FLOWS
END options

BEGIN dimensions
  MAXBOUND  203
END dimensions

BEGIN period  1
  1 273 117     129.75768033
  1 273 118     128.88169258
  1 273 119     127.59912011
  1 273 120     126.31873836
  1 272 120     125.63199948
  1 272 121     124.90488329
  1 272 122     123.58872447
  1 272 123     122.30596708
  1 272 124     121.01522236
  1 272 125     120.03831240
  1 272 128     114.91507489
  1 272 129     114.11137205
  1 272 130     112.74921135
  1 271 130     111.37052693
  1 270 130     110.48575044
  1 270 131     109.75515060
  1 269 131     108.48444290
  1 268 131     107.02614162
  1 267 131     105.52466846
  1 267 132     104.75802143
  1 266 132     103.98269288
  1 265 132     102.82411596
  1 265 133     101.78763658
  1 265 134     100.61047957
  1 266 134      99.96265073
  1 266 135      99.73336707
  1 265 135      99.10394194
  1 265 136      98.24663106
  1 266 136      97.61333028
  1 266 137      96.69808378
  1 266 138      96.06472182
  1 265 138      95.42405847
  1 265 139      94.15401695
  1 265 140      92.88943772
  1 265 141      91.62397353
  1 265 142      90.35850934
  1 265 143      89.09526706
  1 265 144      87.83522728
  1 265 145      86.55800644
  1 265 146      85.53608797
  1 264 146      84.81988648
  1 264 147      83.74142592
  1 264 148      82.70634226
  1 263 148      81.96354867
  1 263 149      80.86552799
  1 262 149      79.97047897
  1 262 150      78.91331519
  1 262 151      78.07596779
  1 261 151      77.23111177
  1 255 167      58.27002635
  1 255 168      57.74768284
  1 254 168      57.49238455
  1 252 167      55.73949251
  1 252 168      55.35462152
  1 251 168      54.94280423
  1 250 168      54.34370907
  1 250 169      53.89441299
  1 249 169      53.56631359
  1 249 170      53.12990195
  1 249 171      52.56732001
  1 249 172      51.99340115
  1 248 173      51.22542350
  1 248 174      50.75980424
  1 247 174      50.34610468
  1 247 175      49.98126460
  1 246 175      49.44778400
  1 246 176      49.06698676
  1 245 176      48.68204624
  1 245 177      48.22814489
  1 244 177      47.86223699
  1 244 178      47.34343163
  1 243 178      47.00664606
  1 243 179      46.62299819
  1 243 180      46.14131342
  1 242 180      45.78448374
  1 242 181      45.31344559
  1 241 181      44.93311239
  1 241 182      44.48642799
  1 240 182      44.10173797
  1 240 183      43.68636257
  1 240 184      43.25663736
  1 239 184      42.90542777
  1 239 185      42.35825627
  1 238 185      42.03845960
  1 238 186      41.93895684
  1 239 186      41.61082702
  1 239 187      41.04859351
  1 239 188      40.51662643
  1 238 188      40.21914522
  1 238 189      39.80513144
  1 238 190      39.37459852
  1 237 190      38.95710338
  1 236 190      38.48557484
  1 236 191      38.02106580
  1 236 192      37.64999339
  1 235 192      37.29936565
  1 235 193      36.76315032
  1 234 193      36.42989065
  1 234 194      35.99902308
  1 234 195      35.39943629
  1 233 195      35.10302006
  1 233 196      34.71244327
  1 233 197      34.24188987
  1 232 197      33.94133907
  1 232 198      33.44901638
  1 232 199      32.85046972
  1 232 200      32.41817013
  1 231 200      31.94145123
  1 231 201      31.54845196
  1 230 201      31.20281054
  1 229 201      30.56906325
  1 228 201      29.91906593
  1 227 201      29.29591770
  1 227 202      28.97398442
  1 226 202      28.61543328
  1 225 202      28.05781018
  1 225 203      27.50738949
  1 225 204      26.97679306
  1 224 204      26.68608120
  1 225 205      26.28765892
  1 225 206      25.74334732
  1 226 206      25.39749370
  1 226 207      24.93415605
  1 226 208      24.51187562
  1 227 208      24.21116341
  1 227 209      23.71326727
  1 227 210      23.21574486
  1 226 210      22.92296968
  1 226 211      22.46650780
  1 226 212      22.05694197
  1 225 212      21.66578796
  1 225 213      21.23412830
  1 224 213      20.82983985
  1 223 213      20.16467004
  1 222 213      19.81959314
  1 222 214      19.44281265
  1 221 214      18.97035655
  1 221 215      18.53450842
  1 220 215      18.15690326
  1 220 216      17.77592153
  1 220 217      17.19193498
  1 219 217      16.88848213
  1 219 218      16.55663383
  1 219 219      15.99106661
  1 219 220      15.43469127
  1 219 221      14.85823211
  1 220 221      14.55805637
  1 220 222      14.27475480
  1 220 223      13.71502255
  1 220 224      13.16006046
  1 220 225      12.60519577
  1 220 226      12.04932930
  1 220 227      11.68292915
  1 219 227      11.39497774
  1 219 228      10.90854258
  1 219 229      10.34285109
  1 219 230       9.78700026
  1 219 231       9.23208402
  1 219 232       8.67554006
  1 219 233       8.11532610
  1 219 234       7.54243631
  1 219 235       7.05848954
  1 218 235       6.77690271
  1 218 236       6.40707040
  1 218 237       5.84308245
  1 218 238       4.92284688
  1 218 239       4.76938582
  1 218 240       4.61687036
  1 218 241       4.46420336
  1 218 242       4.30916281
  1 218 243       4.15133729
  1 218 244       4.03612954
  1 219 244       3.94970669
  1 219 245       3.80890075
  1 219 246       3.70032950
  1 220 246       3.61758435
  1 220 247       3.47569639
  1 220 248       3.32192338
  1 220 249       3.16845308
  1 220 250       3.03332356
  1 219 250       2.95515649
  1 219 251       2.85859956
  1 219 252       2.70569967
  1 219 253       2.59612123
  1 220 253       2.51576829
  1 220 254       2.38986559
  1 220 255       2.25276847
  1 219 255       2.17146958
  1 219 256       2.06728617
  1 219 257       1.90468838
  1 219 258       1.77107708
  1 218 258       1.68753741
  1 218 259       1.57398727
  1 218 260       1.41135425
  1 218 261       1.26180512
  1 217 261       1.18349208
  1 217 262       1.09610500
  1 217 263       0.93947892
  1 217 264       0.78285284
  1 217 265       0.62303849
  1 217 266       0.54006985
  1 216 266       0.45794394
  1 216 267       0.29651988
END period  1

