BEGIN options
  SAVE_FLOWS
END options

BEGIN dimensions
  MAXBOUND  73
END dimensions

BEGIN period  1
  1 91 39     124.87343354
  1 91 40     123.71827220
  1 91 41     121.66876009
  1 91 42     119.61641835
  1 91 43     117.46012969
  1 91 44     115.61516214
  1 90 44     113.75176955
  1 89 44     111.60291282
  1 89 45     109.59722016
  1 89 46     107.60216533
  1 89 47     105.61624728
  1 89 48     103.63664149
  1 89 49     102.11426387
  1 88 49     101.01721078
  1 88 50      99.17227834
  1 88 51      97.87945699
  1 87 51      96.66033162
  1 86 53      91.69220176
  1 85 55      86.20281587
  1 85 56      82.97024256
  1 84 56      79.90927627
  1 84 57      78.53558267
  1 83 57      77.47774169
  1 83 58      75.38760207
  1 83 59      73.88802969
  1 82 59      72.36266276
  1 82 60      70.75513841
  1 81 60      69.53132021
  1 81 61      67.81365602
  1 80 61      66.48210790
  1 80 62      64.80212637
  1 80 63      62.49195739
  1 80 64      61.29074545
  1 79 64      59.82677794
  1 79 65      58.18919074
  1 78 65      57.07410038
  1 78 66      55.06673779
  1 78 67      53.40972091
  1 77 67      51.67684661
  1 76 67      49.71730594
  1 76 68      48.55136503
  1 75 68      47.12652935
  1 75 69      45.48107040
  1 76 69      44.28430941
  1 76 70      42.69958263
  1 76 71      41.17871936
  1 75 71      39.38960960
  1 74 71      38.06573213
  1 74 72      36.64810960
  1 74 73      34.94492524
  1 73 73      33.91281083
  1 73 74      32.50281074
  1 74 74      31.48169344
  1 74 75      30.15647975
  1 74 76      28.73257187
  1 73 76      27.71967972
  1 73 77      26.15137092
  1 73 78      24.14979864
  1 73 79      22.13453874
  1 73 80      20.13986993
  1 73 81      18.13916296
  1 73 82      16.28798272
  1 74 82      15.16887880
  1 74 83      13.89520540
  1 74 84      12.64937105
  1 73 84      11.65294101
  1 73 85      10.66533862
  1 74 85       9.62894388
  1 73 86       7.77269475
  1 73 87       5.67224453
  1 73 88       3.62008491
  1 73 89       2.24917131
  1 72 89       1.19527668
END period  1

