BEGIN options
  SAVE_FLOWS
END options

BEGIN dimensions
  MAXBOUND  107
END dimensions

BEGIN period  1
  1 137 63     130.03498836       0.01000000     128.03498836
  1 137 64     128.06634952       0.01000000     126.06634952
  1 136 64     126.90765583       0.01000000     124.90765583
  1 136 65     125.63212808       0.01000000     123.63212808
  1 136 66     123.40573628       0.01000000     121.40573628
  1 136 67     121.95450591       0.01000000     119.95450591
  1 137 67     120.81861495       0.01000000     118.81861495
  1 136 69     116.25376212       0.01000000     114.25376212
  1 136 70     114.26137060       0.01000000     112.26137060
  1 135 70     112.02455348       0.01000000     110.02455348
  1 134 70     109.32631142       0.01000000     107.32631142
  1 133 70     107.29054719       0.01000000     105.29054719
  1 133 71     105.46966075       0.01000000     103.46966075
  1 133 72     103.20899185       0.01000000     101.20899185
  1 133 73     101.03443375       0.01000000      99.03443375
  1 133 74      98.85929609       0.01000000      96.85929609
  1 133 75      96.68386568       0.01000000      94.68386568
  1 133 76      94.51590170       0.01000000      92.51590170
  1 133 77      92.35165506       0.01000000      90.35165506
  1 133 78      90.66820266       0.01000000      88.66820266
  1 132 78      89.44288481       0.01000000      87.44288481
  1 132 79      87.52824820       0.01000000      85.52824820
  1 132 80      85.89117139       0.01000000      83.89117139
  1 131 80      84.42013974       0.01000000      82.42013974
  1 131 81      82.44375446       0.01000000      80.44375446
  1 130 81      81.10017248       0.01000000      79.10017248
  1 127 87      65.00226158       0.01000000      63.00226158
  1 128 89      62.52843506       0.01000000      60.52843506
  1 128 90      61.65725450       0.01000000      59.65725450
  1 126 89      59.34862530       0.01000000      57.34862530
  1 126 90      58.53362383       0.01000000      56.53362383
  1 125 90      57.44470801       0.01000000      55.44470801
  1 125 91      56.14667965       0.01000000      54.14667965
  1 125 92      54.99391401       0.01000000      52.99391401
  1 124 92      54.33311803       0.01000000      52.33311803
  1 124 93      53.37624007       0.01000000      51.37624007
  1 123 93      52.38490286       0.01000000      50.38490286
  1 123 94      51.42314031       0.01000000      49.42314031
  1 122 94      50.55630749       0.01000000      48.55630749
  1 122 95      49.76201412       0.01000000      47.76201412
  1 122 96      48.61065953       0.01000000      46.61065953
  1 121 96      47.85044162       0.01000000      45.85044162
  1 121 97      46.79301659       0.01000000      44.79301659
  1 120 97      45.96079142       0.01000000      43.96079142
  1 120 98      45.07751124       0.01000000      43.07751124
  1 120 99      43.72413109       0.01000000      41.72413109
  1 119 99      43.01682334       0.01000000      41.01682334
  1 120 100      42.28180092       0.01000000      40.28180092
  1 120 101      41.62960302       0.01000000      39.62960302
  1 119 101      40.71832693       0.01000000      38.71832693
  1 119 102      39.76023962       0.01000000      37.76023962
  1 118 102      38.94138569       0.01000000      36.94138569
  1 118 103      37.75835107       0.01000000      35.75835107
  1 117 103      37.03202398       0.01000000      35.03202398
  1 117 104      36.09730493       0.01000000      34.09730493
  1 117 105      35.00063402       0.01000000      33.00063402
  1 116 105      34.26198790       0.01000000      32.26198790
  1 116 106      33.31618547       0.01000000      31.31618547
  1 116 107      32.09117027       0.01000000      30.09117027
  1 115 107      30.78855215       0.01000000      28.78855215
  1 114 107      29.48347171       0.01000000      27.48347171
  1 114 108      28.72760460       0.01000000      26.72760460
  1 113 108      26.08055335       0.01000000      24.08055335
  1 113 109      25.07786451       0.01000000      23.07786451
  1 112 109      24.63385610       0.01000000      22.63385610
  1 113 110      24.07608630       0.01000000      22.07608630
  1 113 111      23.39651748       0.01000000      21.39651748
  1 114 111      22.95604549       0.01000000      20.95604549
  1 114 112      22.40105576       0.01000000      20.40105576
  1 113 112      21.96962851       0.01000000      19.96962851
  1 113 113      21.26310254       0.01000000      19.26310254
  1 112 113      20.68017382       0.01000000      18.68017382
  1 112 114      20.16597332       0.01000000      18.16597332
  1 111 114      19.27106827       0.01000000      17.27106827
  1 111 115      18.64287674       0.01000000      16.64287674
  1 110 115      18.13122578       0.01000000      16.13122578
  1 110 116      17.42453572       0.01000000      15.42453572
  1 110 117      16.58882283       0.01000000      14.58882283
  1 110 118      15.76090810       0.01000000      13.76090810
  1 110 119      14.93414769       0.01000000      12.93414769
  1 110 120      14.12864087       0.01000000      12.12864087
  1 110 121      13.31232673       0.01000000      11.31232673
  1 110 122      12.48981513       0.01000000      10.48981513
  1 110 123      11.67817861       0.01000000       9.67817861
  1 110 124      10.86925580       0.01000000       8.86925580
  1 110 125      10.04891469       0.01000000       8.04891469
  1 109 125       9.63278431       0.01000000       7.63278431
  1 109 126       9.22227367       0.01000000       7.22227367
  1 109 127       7.76943613       0.01000000       5.76943613
  1 109 128       7.31125054       0.01000000       5.31125054
  1 109 129       6.84986861       0.01000000       4.84986861
  1 109 130       6.45966375       0.01000000       4.45966375
  1 110 130       6.21123284       0.01000000       4.21123284
  1 110 131       5.86080707       0.01000000       3.86080707
  1 110 132       5.37255694       0.01000000       3.37255694
  1 110 133       4.91147292       0.01000000       2.91147292
  1 110 134       4.45112820       0.01000000       2.45112820
  1 110 135       3.98545289       0.01000000       1.98545289
  1 110 136       3.50870170       0.01000000       1.50870170
  1 110 137       3.02577589       0.01000000       1.02577589
  1 110 138       2.72882223       0.01000000       0.72882223
  1 109 138       2.48082693       0.01000000       0.48082693
  1 109 139       2.05047692       0.01000000       0.05047692
  1 109 140       1.58008506       0.01000000      -0.41991494
  1 109 141       1.10917622       0.01000000      -0.89082378
  1 109 142       0.83486367       0.01000000      -1.16513633
  1 108 142       0.59009833       0.01000000      -1.40990167
END period  1

