BEGIN options
  SAVE_FLOWS
END options

BEGIN dimensions
  MAXBOUND  107
END dimensions

BEGIN period  1
  1 137 63     129.97350778
  1 137 64     127.87944760
  1 136 64     126.64693391
  1 136 65     125.29014269
  1 136 66     122.92190819
  1 136 67     121.37822040
  1 137 67     120.16996220
  1 136 69     115.31428407
  1 136 70     113.19495792
  1 135 70     110.81563391
  1 134 70     107.94548772
  1 133 70     105.78002560
  1 133 71     103.84313108
  1 133 72     101.43843568
  1 133 73      99.12533719
  1 133 74      96.81162221
  1 133 75      94.49759583
  1 133 76      92.19151157
  1 133 77      89.88938147
  1 133 78      88.09867686
  1 132 78      86.79529441
  1 132 79      84.75867692
  1 132 80      83.01730247
  1 131 80      81.45255187
  1 131 81      79.35025172
  1 130 81      77.92107057
  1 127 87      61.42557285
  1 128 89      59.18275378
  1 128 90      58.39292459
  1 126 89      56.29987660
  1 126 90      55.56098047
  1 125 90      54.57374828
  1 125 91      53.39693060
  1 125 92      52.35181093
  1 124 92      51.75272048
  1 124 93      50.88519637
  1 123 93      49.98643084
  1 123 94      49.11447827
  1 122 94      48.32859083
  1 122 95      47.60846907
  1 122 96      46.56462867
  1 121 96      45.87540038
  1 121 97      44.91671835
  1 120 97      44.16220688
  1 120 98      43.36140795
  1 120 99      42.13440726
  1 119 99      41.49314835
  1 120 100      40.82676277
  1 120 101      40.23546751
  1 119 101      39.40928695
  1 119 102      38.54066641
  1 118 102      37.79827757
  1 118 103      36.72571545
  1 117 103      36.06721323
  1 117 104      35.21977882
  1 117 105      34.22551571
  1 116 105      33.55584482
  1 116 106      32.69836200
  1 116 107      31.58773948
  1 115 107      30.40676064
  1 114 107      29.22354941
  1 114 108      28.53826564
  1 113 108      26.01430237
  1 113 109      24.90437409
  1 112 109      24.41287815
  1 113 110      23.79545382
  1 113 111      23.04320384
  1 114 111      22.55562254
  1 114 112      21.94127563
  1 113 112      21.46370642
  1 113 113      20.68161618
  1 112 113      20.03634214
  1 112 114      19.46714694
  1 111 114      18.47653012
  1 111 115      17.78115233
  1 110 115      17.21477934
  1 110 116      16.43250745
  1 110 117      15.50741351
  1 110 118      14.59095175
  1 110 119      13.67576777
  1 110 120      12.78411048
  1 110 121      11.88049001
  1 110 122      10.97000926
  1 110 123      10.07156670
  1 110 124       9.17612808
  1 110 125       8.26804995
  1 109 125       7.80741364
  1 109 126       7.35299812
  1 109 127       5.82780673
  1 109 128       5.48561750
  1 109 129       5.14104112
  1 109 130       4.84962230
  1 110 130       4.66408529
  1 110 131       4.40237490
  1 110 132       4.03773240
  1 110 133       3.69337851
  1 110 134       3.34957675
  1 110 135       3.00179393
  1 110 136       2.64573925
  1 110 137       2.28507314
  1 110 138       2.06329761
  1 109 138       1.87808594
  1 109 139       1.55668530
  1 109 140       1.20537998
  1 109 141       0.85368857
  1 109 142       0.64882223
  1 108 142       0.46602280
END period  1

