BEGIN options
  SAVE_FLOWS
END options

BEGIN dimensions
  MAXBOUND  73
END dimensions

BEGIN period  1
  1 91 39     132.77105698
  1 91 40     130.68151350
  1 91 41     126.97420045
  1 91 42     123.26176898
  1 91 43     119.36131041
  1 91 44     116.02399310
  1 90 44     112.65334717
  1 89 44     108.76633206
  1 89 45     105.13828296
  1 89 46     101.52947639
  1 89 47      97.93719712
  1 89 48      94.35633594
  1 89 49      91.60254377
  1 88 49      89.61811089
  1 88 50      86.28085709
  1 88 51      83.94230373
  1 87 51      81.73705724
  1 86 53      72.75032693
  1 85 55      63.41819025
  1 85 56      60.74653590
  1 84 56      58.21671118
  1 84 57      57.08138210
  1 83 57      56.20709861
  1 83 58      54.47964186
  1 83 59      53.24027660
  1 82 59      51.97959268
  1 82 60      50.65100736
  1 81 60      49.63954717
  1 81 61      48.21993358
  1 80 61      47.11943687
  1 80 62      45.73096721
  1 80 63      43.82166078
  1 80 64      42.82888419
  1 79 64      41.61894561
  1 79 65      40.26551398
  1 78 65      39.34391509
  1 78 66      37.68487181
  1 78 67      36.31538196
  1 77 67      34.88319754
  1 76 67      33.26367808
  1 76 68      32.30005226
  1 75 68      31.12245532
  1 75 69      29.76251786
  1 76 69      28.77341989
  1 76 70      27.46367629
  1 76 71      26.20671455
  1 75 71      24.72805269
  1 74 71      23.63389561
  1 74 72      22.46226018
  1 74 73      21.05461387
  1 73 73      20.20159286
  1 73 74      19.03625723
  1 74 74      18.19232510
  1 74 75      17.09706365
  1 74 76      15.92023352
  1 73 76      15.08309931
  1 73 77      13.78692483
  1 73 78      12.13266713
  1 73 79      10.46709690
  1 73 80       7.62971800
  1 73 81       6.88171121
  1 73 82       6.18960818
  1 74 82       5.77120741
  1 74 83       5.29501757
  1 74 84       4.82923595
  1 73 84       4.45669942
  1 73 85       4.08746329
  1 74 85       3.69998512
  1 73 86       3.00598697
  1 73 87       2.22068906
  1 73 88       1.45344561
  1 73 89       0.94090045
  1 72 89       0.54687956
END period  1

