BEGIN options
  SAVE_FLOWS
END options

BEGIN dimensions
  MAXBOUND  111
END dimensions

BEGIN period  1
  1 175 49     130.34318264       0.01000000     128.34318264
  1 175 50     128.55564820       0.01000000     126.55564820
  1 175 51     126.25376970       0.01000000     124.25376970
  1 175 52     123.98103816       0.01000000     121.98103816
  1 175 53     121.74157339       0.01000000     119.74157339
  1 175 55     117.04096941       0.01000000     115.04096941
  1 174 56     113.36642823       0.01000000     111.36642823
  1 173 56     111.13918009       0.01000000     109.13918009
  1 172 56     109.29873741       0.01000000     107.29873741
  1 172 57     108.13255142       0.01000000     106.13255142
  1 171 57     106.14088889       0.01000000     104.14088889
  1 171 58     103.45378406       0.01000000     101.45378406
  1 171 59     101.25265770       0.01000000      99.25265770
  1 171 60      99.06293666       0.01000000      97.06293666
  1 171 61      96.87120488       0.01000000      94.87120488
  1 171 62      95.73925211       0.01000000      93.73925211
  1 170 62      94.64593024       0.01000000      92.64593024
  1 170 63      92.50152264       0.01000000      90.50152264
  1 170 64      90.29573320       0.01000000      88.29573320
  1 170 65      87.91159103       0.01000000      85.91159103
  1 170 66      86.51589999       0.01000000      84.51589999
  1 169 66      85.09615100       0.01000000      83.09615100
  1 169 67      83.41946014       0.01000000      81.41946014
  1 168 67      81.97395986       0.01000000      79.97395986
  1 167 68      78.91855338       0.01000000      76.91855338
  1 164 76      62.04437122       0.01000000      60.04437122
  1 165 76      60.93929886       0.01000000      58.93929886
  1 162 76      58.76814914       0.01000000      56.76814914
  1 162 77      58.16482503       0.01000000      56.16482503
  1 161 77      57.36494086       0.01000000      55.36494086
  1 161 78      56.07452117       0.01000000      54.07452117
  1 161 79      55.28985579       0.01000000      53.28985579
  1 160 79      54.65346955       0.01000000      52.65346955
  1 160 80      53.71687104       0.01000000      51.71687104
  1 159 80      52.75890615       0.01000000      50.75890615
  1 159 81      52.08433329       0.01000000      50.08433329
  1 158 81      51.26926991       0.01000000      49.26926991
  1 158 82      50.40986412       0.01000000      48.40986412
  1 157 82      49.70742241       0.01000000      47.70742241
  1 157 83      48.74050448       0.01000000      46.74050448
  1 156 83      48.02121017       0.01000000      46.02121017
  1 156 84      47.18616102       0.01000000      45.18616102
  1 155 84      46.39497314       0.01000000      44.39497314
  1 155 85      45.52376134       0.01000000      43.52376134
  1 155 86      44.77042217       0.01000000      42.77042217
  1 154 86      44.09445270       0.01000000      42.09445270
  1 154 87      42.84765379       0.01000000      40.84765379
  1 154 88      41.55062157       0.01000000      39.55062157
  1 153 88      40.79249302       0.01000000      38.79249302
  1 153 89      40.03216069       0.01000000      38.03216069
  1 152 89      39.15191339       0.01000000      37.15191339
  1 152 90      38.27568828       0.01000000      36.27568828
  1 152 91      37.47531116       0.01000000      35.47531116
  1 151 91      36.85445197       0.01000000      34.85445197
  1 151 92      35.72753190       0.01000000      33.72753190
  1 150 92      35.00687994       0.01000000      33.00687994
  1 150 93      34.31505348       0.01000000      32.31505348
  1 150 94      33.13632886       0.01000000      31.13632886
  1 149 94      31.92331491       0.01000000      29.92331491
  1 148 94      30.95574965       0.01000000      28.95574965
  1 148 95      30.35664604       0.01000000      28.35664604
  1 147 95      29.52387840       0.01000000      27.52387840
  1 146 95      28.44407135       0.01000000      26.44407135
  1 146 96      26.24966781       0.01000000      24.24966781
  1 146 97      25.30813191       0.01000000      23.30813191
  1 146 98      24.70905315       0.01000000      22.70905315
  1 147 98      24.22146638       0.01000000      22.22146638
  1 147 99      23.42774567       0.01000000      21.42774567
  1 147 100      22.71675424       0.01000000      20.71675424
  1 146 100      22.17562731       0.01000000      20.17562731
  1 146 101      21.62807406       0.01000000      19.62807406
  1 145 101      20.88962866       0.01000000      18.88962866
  1 144 101      20.28886968       0.01000000      18.28886968
  1 144 102      19.77801088       0.01000000      17.77801088
  1 143 102      19.18525972       0.01000000      17.18525972
  1 143 103      18.47112037       0.01000000      16.47112037
  1 143 104      17.91531480       0.01000000      15.91531480
  1 142 104      17.49520348       0.01000000      15.49520348
  1 142 105      16.74559296       0.01000000      14.74559296
  1 142 106      16.29483306       0.01000000      14.29483306
  1 143 106      15.87105712       0.01000000      13.87105712
  1 143 107      15.06857641       0.01000000      13.06857641
  1 143 108      14.24644037       0.01000000      12.24644037
  1 143 109      13.68060835       0.01000000      11.68060835
  1 142 109      13.25497865       0.01000000      11.25497865
  1 142 110      12.57218990       0.01000000      10.57218990
  1 142 111      11.74962255       0.01000000       9.74962255
  1 142 112      10.92085752       0.01000000       8.92085752
  1 142 113      10.08077601       0.01000000       8.08077601
  1 142 114       9.24096706       0.01000000       7.24096706
  1 142 115       7.77220021       0.01000000       5.77220021
  1 142 116       7.31766526       0.01000000       5.31766526
  1 142 117       6.85641187       0.01000000       4.85641187
  1 142 118       6.36773991       0.01000000       4.36773991
  1 142 119       6.03588579       0.01000000       4.03588579
  1 143 119       5.78503517       0.01000000       3.78503517
  1 143 120       5.38449926       0.01000000       3.38449926
  1 143 121       4.92631146       0.01000000       2.92631146
  1 143 122       4.46824877       0.01000000       2.46824877
  1 143 123       4.00544882       0.01000000       2.00544882
  1 143 124       3.58045515       0.01000000       1.58045515
  1 142 124       3.34016785       0.01000000       1.34016785
  1 142 125       3.04757164       0.01000000       1.04757164
  1 142 126       2.55910784       0.01000000       0.55910784
  1 142 127       2.23361545       0.01000000       0.23361545
  1 141 127       1.99843380       0.01000000      -0.00156620
  1 141 128       1.60934289       0.01000000      -0.39065711
  1 141 129       1.14125496       0.01000000      -0.85874504
  1 141 130       0.71058926       0.01000000      -1.28941074
  1 140 130       0.46653637       0.01000000      -1.53346363
  1 140 131       0.25888115       0.01000000      -1.74111885
END period  1

