BEGIN options
  SAVE_FLOWS
END options

BEGIN dimensions
  MAXBOUND  169
END dimensions

BEGIN period  1
  1 227 104     130.67715852
  1 227 105     129.96168489
  1 228 105     129.29016261
  1 228 106     128.65989331
  1 227 106     127.95914801
  1 227 107     126.88142699
  1 227 108     125.45642349
  1 227 109     124.08831784
  1 227 110     122.72601926
  1 227 111     121.33310482
  1 227 114     116.87583767
  1 227 115     115.40972706
  1 226 116     113.61860789
  1 225 116     111.98027272
  1 224 116     110.34447287
  1 223 116     108.88530077
  1 223 117     108.02984800
  1 222 117     106.95686104
  1 221 117     105.69592012
  1 221 118     104.62066522
  1 221 119     103.25965835
  1 221 120     101.90707461
  1 221 121     100.56931774
  1 221 122      99.22771707
  1 221 123      97.87940082
  1 221 124      96.53287512
  1 221 125      95.19326561
  1 221 126      93.85220483
  1 221 127      92.51348030
  1 221 128      91.17749606
  1 221 129      89.81062322
  1 221 130      88.96593488
  1 220 130      88.17886962
  1 220 131      86.77202435
  1 220 132      85.87593467
  1 219 132      84.98518624
  1 219 133      83.82215954
  1 218 133      82.93623874
  1 218 134      81.70873596
  1 217 134      80.80853012
  1 213 148      62.58646546
  1 213 149      62.00249584
  1 212 149      61.47097001
  1 210 148      59.62480275
  1 210 149      59.10468098
  1 209 149      58.27483547
  1 208 149      57.71695919
  1 208 150      57.18171142
  1 208 151      56.38981524
  1 208 152      55.65757672
  1 208 153      55.24522974
  1 207 153      54.85809417
  1 207 154      54.05029956
  1 207 155      53.57547292
  1 206 155      53.05067430
  1 205 155      52.38490286
  1 205 156      51.84300509
  1 204 156      51.30326047
  1 204 157      50.67197458
  1 204 158      50.17867785
  1 203 158      49.74152366
  1 203 159      48.98917496
  1 202 159      48.54925235
  1 202 160      47.96869715
  1 202 161      47.41063497
  1 201 161      46.91129987
  1 201 162      46.29368149
  1 200 162      45.80790501
  1 200 163      45.12839247
  1 199 163      44.67251563
  1 199 164      44.18672783
  1 199 165      43.32746113
  1 199 166      42.53504255
  1 199 167      41.77534140
  1 199 168      41.23899865
  1 198 168      40.73721776
  1 198 169      40.18292539
  1 197 169      39.54801361
  1 197 170      38.94170151
  1 196 170      38.48759269
  1 196 171      37.76253076
  1 196 172      37.31971356
  1 195 172      36.89925136
  1 195 173      36.10143221
  1 195 174      35.55480217
  1 194 174      35.06475772
  1 194 175      34.35430509
  1 194 176      33.60877602
  1 194 177      33.12913952
  1 193 177      32.58332795
  1 193 178      32.02862562
  1 192 178      31.41506656
  1 191 178      30.49416923
  1 190 178      29.82995239
  1 190 179      29.36995435
  1 189 179      28.69876537
  1 188 179      27.88551984
  1 188 180      27.21648545
  1 187 180      26.61117844
  1 187 181      26.21020531
  1 187 182      25.67453881
  1 188 182      25.34386315
  1 188 183      24.87478355
  1 188 184      24.39396301
  1 189 184      24.04571596
  1 189 185      23.51515254
  1 189 186      22.92139988
  1 189 187      22.35858317
  1 188 187      22.00576235
  1 188 188      21.52256245
  1 187 188      21.10444100
  1 187 189      20.69601076
  1 186 189      19.97450868
  1 186 190      19.61150602
  1 185 190      19.15567492
  1 184 190      18.68694448
  1 184 191      18.25603849
  1 184 192      17.75952904
  1 183 192      17.42443742
  1 183 193      16.89117642
  1 183 194      16.28732410
  1 183 195      15.70373936
  1 183 196      15.10966198
  1 183 197      14.50549106
  1 183 198      13.91705592
  1 183 199      13.33836553
  1 183 200      12.75979448
  1 183 201      12.17823974
  1 183 202      11.58248745
  1 183 203      10.98595530
  1 183 204      10.40452116
  1 183 205       9.82615873
  1 183 206       9.24578894
  1 183 207       8.71033376
  1 182 207       8.41640927
  1 182 208       8.06491192
  1 182 209       7.46914077
  1 182 210       6.88225158
  1 182 211       5.89599282
  1 182 212       5.68980741
  1 182 213       5.48565275
  1 182 214       5.28137023
  1 182 215       5.07276241
  1 182 216       4.86148315
  1 182 217       4.66908332
  1 183 217       4.54822512
  1 183 218       4.39734107
  1 183 219       4.17511833
  1 183 220       3.96822270
  1 183 221       3.76311089
  1 183 222       3.55554626
  1 183 223       3.34884065
  1 183 224       3.14439280
  1 183 225       2.93358320
  1 183 226       2.71826551
  1 183 227       2.50265194
  1 183 228       2.31637273
  1 182 228       2.20758333
  1 182 229       2.06492234
  1 182 230       1.84344753
  1 182 231       1.65312852
  1 181 231       1.54634230
  1 181 232       1.41496778
  1 181 233       1.20537998
  1 181 234       0.99579218
  1 181 235       0.78382597
  1 181 236       0.64882223
  1 180 236       0.53865306
  1 180 237       0.34806809
END period  1

