BEGIN options
  SAVE_FLOWS
END options

BEGIN dimensions
  MAXBOUND  102
END dimensions

BEGIN period  1
  1 58 10     178.21269904
  1 58 11     174.25875965
  1 57 11     171.99046128
  1 57 12     169.99635804
  1 57 13     166.25433934
  1 57 14     162.55932452
  1 57 15     158.40636429
  1 56 15     154.02413099
  1 56 16     151.26949338
  1 55 16     148.75988254
  1 55 17     145.04016017
  1 55 18     141.27394870
  1 55 19     138.33501311
  1 54 19     136.27123449
  1 54 20     133.47255556
  1 53 20     125.53015350
  1 53 21     124.00833204
  1 52 21     122.47517274
  1 52 22     120.50689922
  1 51 22     118.81404031
  1 51 23     116.43574539
  1 51 24     114.09322536
  1 51 25     111.71346634
  1 51 26     110.15386365
  1 50 26     108.80887912
  1 50 27     106.18817158
  1 50 28     103.54470047
  1 49 28     102.14535136
  1 50 29     100.54292139
  1 50 30      98.08778817
  1 50 31      95.62629543
  1 50 32      94.29740900
  1 51 32      92.96988626
  1 51 33      90.47241802
  1 51 34      87.98667711
  1 51 35      85.96215173
  1 52 35      84.67699576
  1 51 36      83.95424582
  1 52 36      82.68026255
  1 52 37      77.46836741
  1 52 38      75.66643211
  1 53 38      74.44441101
  1 53 39      72.55286481
  1 53 40      70.29260186
  1 53 41      65.95368449
  1 53 42      64.14496763
  1 53 43      62.36162603
  1 53 44      60.55705192
  1 53 45      58.72955683
  1 53 46      56.82351106
  1 53 47      54.90357036
  1 53 48      53.14800807
  1 53 49      51.44654725
  1 52 49      50.56332388
  1 52 50      49.62756260
  1 52 51      47.86121387
  1 52 52      46.12101868
  1 52 53      44.37448678
  1 52 54      42.97422826
  1 51 54      41.76080402
  1 51 55      40.21941349
  1 51 56      38.45696502
  1 51 57      37.21130753
  1 50 57      36.27518283
  1 50 58      34.81173138
  1 50 59      33.09265516
  1 50 60      31.37311675
  1 50 61      29.64469081
  1 50 62      27.87226687
  1 50 63      26.92724462
  1 49 63      26.05483783
  1 49 64      22.80461248
  1 49 65      21.51150004
  1 49 66      20.52515051
  1 48 66      19.83981142
  1 48 67      18.83343246
  1 48 68      17.54779040
  1 48 69      16.72032262
  1 47 69      16.06605743
  1 47 70      14.97902418
  1 47 71      12.56896729
  1 47 72      11.67694541
  1 47 73      10.79506716
  1 47 74       9.90827856
  1 47 75       9.04664528
  1 47 76       8.19389497
  1 47 77       7.33304963
  1 47 78       6.47310328
  1 47 79       4.93705248
  1 47 80       4.51740816
  1 47 81       4.09538534
  1 48 81       3.83727094
  1 48 82       3.57929402
  1 48 83       3.23517605
  1 47 83       2.93882981
  1 47 84       2.56124078
  1 47 85       2.12456834
  1 47 86       1.82909053
  1 48 86       1.57520611
  1 48 87       1.16799014
  1 48 88       0.85628015
  1 47 88       0.61395882
END period  1

