BEGIN options
  SAVE_FLOWS
END options

BEGIN dimensions
  MAXBOUND  209
END dimensions

BEGIN period  1
  1 115 21     139.63109800
  1 115 22     138.83212649
  1 114 24     137.10506893
  1 114 25     136.30259133
  1 114 26     135.51248040
  1 114 27     134.72397472
  1 114 28     133.93563061
  1 114 29     133.02051279
  1 114 30     132.48807135
  1 113 30     132.02326499
  1 112 30     131.35169129
  1 112 29     130.89500813
  1 111 30     130.22699880
  1 111 31     129.50694199
  1 110 31     128.96315186
  1 110 32     128.35574304
  1 109 32     127.82746498
  1 109 33     127.24087869
  1 109 34     126.43348331
  1 109 35     125.63516610
  1 109 36     124.83369229
  1 109 37     124.02191412
  1 109 38     123.56791862
  1 108 38     123.09991023
  1 108 39     122.40904277
  1 107 39     121.64110886
  1 106 39     120.97833380
  1 106 40     120.52365017
  1 105 40     119.68321646
  1 105 41     119.10406905
  1 104 41     118.55494194
  1 104 42     117.89703482
  1 103 42     117.40462866
  1 103 43     116.72541291
  1 102 43     116.13773415
  1 102 44     115.50753282
  1 101 44     114.94518831
  1 101 45     114.35719117
  1 101 46     113.56065033
  1 101 47     112.76582318
  1 101 48     111.97100130
  1 101 49     111.16536734
  1 101 50     110.34352864
  1 101 51     109.69220312
  1 100 51     109.18403715
  1 100 52     108.50799670
  1 100 53     107.67875241
  1 100 54     107.13145352
  1 99 54     106.45085918
  1 99 55     105.64265075
  1 98 55     105.13232271
  1 99 56     104.43289350
  1 99 57     103.59503197
  1 99 58     102.87940585
  1 100 58     102.44749935
  1 100 59     101.92967672
  1 100 60     101.09127672
  1 100 61     100.22290393
  1 100 62      99.38911854
  1 100 63      98.92031198
  1 101 63      98.43123648
  1 101 64      97.59837750
  1 101 65      96.74439641
  1 101 66      96.11545193
  1 102 66      95.69290603
  1 102 67      95.05092216
  1 102 68      94.22603001
  1 102 69      93.35134741
  1 102 70      92.80090266
  1 103 70      92.38480034
  1 102 71      91.89380889
  1 103 71      91.43349431
  1 103 72      90.73641014
  1 103 73      89.90563481
  1 103 74      89.30713532
  1 104 74      88.77009075
  1 104 75      88.08520316
  1 105 75      87.62129221
  1 105 76      87.07165349
  1 105 77      86.26623130
  1 105 78      85.46865962
  1 105 79      84.65577492
  1 105 80      83.84352616
  1 105 81      83.26077388
  1 106 81      82.85050355
  1 106 82      82.21190287
  1 106 83      81.71011345
  1 105 83      81.27134613
  1 105 84      80.50309414
  1 105 85      80.05709750
  1 106 85      79.65437219
  1 106 86      79.21096270
  1 105 86      78.81386796
  1 105 87      78.34503034
  1 106 87      77.91751525
  1 106 88      77.18114533
  1 106 89      76.32899444
  1 106 90      75.50788064
  1 106 91      74.66930522
  1 105 91      74.14155999
  1 105 92      73.61242729
  1 105 93      72.77830152
  1 105 94      71.94427921
  1 105 95      71.12239471
  1 105 96      70.32548627
  1 105 97      69.51944529
  1 105 98      68.73568366
  1 104 98      68.32441092
  1 104 99      67.87225048
  1 104 100      67.03968073
  1 104 101      66.22350078
  1 104 102      65.41511911
  1 104 103      64.81575891
  1 103 103      64.40584569
  1 103 104      63.78756231
  1 103 105      62.98809530
  1 103 106      62.17382678
  1 103 107      61.27408326
  1 102 107      60.66700710
  1 102 108      60.02630906
  1 102 109      59.11044026
  1 102 110      58.31917476
  1 102 111      57.90004941
  1 101 111      57.47961313
  1 101 112      56.65707501
  1 101 113      55.92028599
  1 100 113      55.46790066
  1 100 114      54.90939642
  1 100 115      54.08837618
  1 100 116      53.28732288
  1 100 117      52.49322125
  1 100 118      51.69723965
  1 100 119      50.90122057
  1 100 120      50.13431141
  1 99 120      49.72965311
  1 99 121      49.29256042
  1 99 122      48.48832223
  1 99 123      47.68304435
  1 99 124      46.84068719
  1 99 125      46.36631319
  1 98 125      45.95911697
  1 98 126      45.18422012
  1 98 127      44.37575792
  1 98 128      43.54860421
  1 98 129      43.00844671
  1 97 129      42.58027571
  1 97 130      41.84223263
  1 97 131      40.99182782
  1 97 132      40.56402105
  1 96 132      40.09418299
  1 96 133      39.20005325
  1 96 134      38.70943445
  1 95 134      38.29345019
  1 95 135      37.53259025
  1 95 136      36.70466841
  1 95 137      36.03320189
  1 94 137      35.60668798
  1 94 138      35.00424295
  1 94 139      34.17763593
  1 94 140      33.36497042
  1 94 141      32.84099072
  1 93 141      32.39246537
  1 93 142      31.64287500
  1 93 143      30.82170548
  1 93 144      30.01560104
  1 93 145      29.19583645
  1 93 146      28.37699685
  1 94 146      27.95473084
  1 94 147      27.51804204
  1 94 148      26.70275348
  1 94 149      25.90367460
  1 94 150      25.10739966
  1 94 151      24.30591984
  1 94 152      23.50724563
  1 94 153      22.72034953
  1 93 153      22.32140709
  1 94 154      21.89941265
  1 94 155      21.08591577
  1 94 156      20.28892299
  1 94 157      19.48419763
  1 94 158      18.79675503
  1 93 158      18.36666878
  1 93 159      17.81290864
  1 93 160      16.99868884
  1 93 161      16.45143175
  1 94 161      15.99310256
  1 94 162      15.28028798
  1 95 162      14.72185324
  1 95 163      14.10905277
  1 95 164      13.26138233
  1 95 165      12.38280461
  1 95 166      11.87492596
  1 94 166      11.30193586
  1 93 166      10.64244776
  1 93 167      10.09896405
  1 93 168       9.27105391
  1 93 169       8.49007977
  1 94 169       8.06737304
  1 94 170       7.55247047
  1 94 171       6.81123134
  1 95 171       6.30321879
  1 95 172       5.57483400
  1 95 173       5.07317024
  1 96 173       4.66822350
  1 96 174       4.25086671
  1 95 174       3.78009359
  1 95 175       2.97913788
  1 94 175       2.50643138
  1 94 176       1.90404725
END period  1

