BEGIN options
  SAVE_FLOWS
END options

BEGIN dimensions
  MAXBOUND  317
END dimensions

BEGIN period  1
  1 172 30     161.86091152
  1 172 31     158.00000000
  1 172 32     158.00000000
  1 172 33     157.48079167
  1 171 35     154.86682352
  1 171 36     152.51838861
  1 171 37     151.55452859
  1 171 38     150.59223898
  1 171 39     149.63253385
  1 171 40     148.67331000
  1 171 41     147.71417619
  1 171 42     146.75500657
  1 171 43     145.75728710
  1 171 44     145.09020002
  1 170 44     144.35573595
  1 169 44     143.22384889
  1 168 44     142.12988736
  1 167 44     141.10959641
  1 167 45     140.45102862
  1 166 45     139.85384591
  1 166 46     138.91243671
  1 165 46     138.32102278
  1 165 47     137.59497029
  1 164 47     136.85709851
  1 164 48     136.15670350
  1 164 49     135.32741052
  1 163 49     134.81732143
  1 163 50     134.02656104
  1 163 51     133.06315222
  1 163 52     132.09531196
  1 163 53     131.11706302
  1 163 54     130.14152717
  1 163 55     129.16062695
  1 163 56     128.00000000
  1 162 56     128.00000000
  1 162 57     128.00000000
  1 162 58     128.00000000
  1 161 58     128.00000000
  1 160 58     127.81482530
  1 160 59     127.26083967
  1 159 59     126.40780720
  1 158 59     125.42901328
  1 157 59     124.90713872
  1 157 60     124.29084746
  1 157 61     123.64545486
  1 156 61     123.03091684
  1 156 62     122.37155191
  1 155 62     121.84622674
  1 155 63     121.06211553
  1 154 63     120.53818615
  1 154 64     119.84568147
  1 153 64     119.22625920
  1 153 65     118.00000000
  1 153 66     118.00000000
  1 152 66     116.96991564
  1 152 67     115.20557953
  1 152 68     113.00000000
  1 152 69     112.64983129
  1 152 70     111.94804256
  1 152 71     111.24273457
  1 152 72     110.53740240
  1 152 73     109.82039198
  1 152 74     109.35905073
  1 151 74     109.00421157
  1 151 75     107.41318929
  1 151 76     106.32874663
  1 150 76     105.57404027
  1 150 77     104.72528826
  1 150 78     103.00000000
  1 150 79     103.00000000
  1 149 79     103.00000000
  1 149 80     101.55927057
  1 149 81      98.00000000
  1 148 81      97.70747627
  1 148 82      97.33806200
  1 147 82      97.01474471
  1 148 83      96.45441078
  1 148 84      96.05299109
  1 149 84      95.78617428
  1 149 85      95.35372063
  1 149 86      94.84192156
  1 149 87      94.30625720
  1 149 88      93.77029058
  1 149 89      93.00000000
  1 149 90      93.00000000
  1 150 90      93.00000000
  1 150 91      93.00000000
  1 150 92      93.00000000
  1 150 93      93.00000000
  1 150 94      93.00000000
  1 151 94      93.00000000
  1 151 95      92.18833562
  1 151 96      90.52234512
  1 151 97      88.00000000
  1 151 98      88.00000000
  1 152 98      88.00000000
  1 152 99      88.00000000
  1 152 100      88.00000000
  1 152 101      87.39935872
  1 152 102      86.69648976
  1 153 102      86.09003293
  1 153 103      84.94574441
  1 153 104      83.93627258
  1 154 104      82.78948780
  1 154 105      82.26768600
  1 153 105      81.81585293
  1 153 106      81.40296395
  1 154 106      80.91331932
  1 154 107      80.21802740
  1 154 108      79.30783743
  1 154 109      78.00000000
  1 154 110      77.88707076
  1 155 110      77.44181997
  1 155 111      76.81726170
  1 156 111      76.31638095
  1 156 112      75.66922639
  1 157 112      75.22017234
  1 157 113      74.83914597
  1 157 114      74.09818028
  1 157 115      72.58673709
  1 157 116      71.76080390
  1 157 117      70.93546333
  1 157 118      70.30904049
  1 158 118      69.88085293
  1 158 119      69.24189383
  1 158 120      67.18892166
  1 158 121      65.55224112
  1 158 122      63.00000000
  1 158 123      63.00000000
  1 158 124      63.00000000
  1 158 125      63.00000000
  1 158 126      63.00000000
  1 158 127      63.00000000
  1 158 128      62.40409161
  1 158 129      61.21090766
  1 158 130      59.97652094
  1 158 131      58.88159581
  1 159 131      58.00000000
  1 159 132      58.00000000
  1 159 133      58.00000000
  1 159 134      57.62524748
  1 159 135      56.84972011
  1 159 136      56.20602859
  1 158 136      55.70684720
  1 158 137      55.00887843
  1 157 137      54.54525196
  1 157 138      54.31241753
  1 158 138      53.93980377
  1 158 139      53.00000000
  1 158 140      53.49766511
  1 158 141      54.48647360
  1 157 141      55.01771264
  1 157 142      55.55250022
  1 157 143      56.53474062
  1 157 144      56.77386012
  1 157 145      51.73417935
  1 157 146      48.00000000
  1 157 147      48.00000000
  1 156 147      48.00000000
  1 156 148      48.00000000
  1 156 149      48.00000000
  1 156 150      48.00000000
  1 156 151      48.00000000
  1 155 151      48.00000000
  1 155 152      48.00000000
  1 155 153      47.36275426
  1 155 154      46.09849011
  1 155 155      44.84479863
  1 155 156      43.00000000
  1 155 157      43.00000000
  1 155 158      43.00000000
  1 154 158      43.00000000
  1 154 159      43.00000000
  1 155 159      43.00000000
  1 155 160      42.54448787
  1 154 160      40.69155433
  1 154 161      38.00000000
  1 153 161      38.00000000
  1 153 162      38.00000000
  1 152 162      38.00000000
  1 152 163      38.00000000
  1 152 164      38.00000000
  1 152 165      37.10378279
  1 152 166      35.25732810
  1 152 167      33.00000000
  1 151 167      33.00000000
  1 151 168      33.00000000
  1 151 169      33.00000000
  1 151 170      33.00000000
  1 150 170      33.00000000
  1 150 171      33.00000000
  1 150 172      33.00000000
  1 150 173      32.32902439
  1 149 173      31.28346004
  1 149 174      29.88028184
  1 149 175      28.00000000
  1 150 175      28.00000000
  1 150 176      28.00000000
  1 150 177      28.00000000
  1 149 177      28.00000000
  1 149 178      28.00000000
  1 149 179      28.00000000
  1 149 180      28.00000000
  1 149 181      28.00000000
  1 149 182      28.00000000
  1 149 183      28.00000000
  1 148 183      28.00000000
  1 148 184      28.00000000
  1 148 185      28.00000000
  1 148 186      28.00000000
  1 148 187      28.00000000
  1 147 187      27.69779366
  1 147 188      27.05304880
  1 147 189      26.36797178
  1 147 190      25.68289475
  1 147 191      24.99229110
  1 147 192      24.61081937
  1 146 192      24.24756005
  1 146 193      23.55402356
  1 146 194      22.92300385
  1 145 194      22.55932009
  1 145 195      22.09942772
  1 145 196      21.37818728
  1 145 197      20.83312570
  1 144 197      20.46259864
  1 144 198      19.87094686
  1 144 199      19.33069892
  1 143 199      18.96822502
  1 143 200      17.86736719
  1 143 201      17.61017261
  1 143 202      17.39625687
  1 142 202      17.27254344
  1 142 203      17.11147369
  1 142 204      16.85578383
  1 142 205      16.61256751
  1 141 205      16.48271674
  1 141 206      16.33645704
  1 141 207      16.07599473
  1 141 208      15.82271117
  1 141 209      15.63733265
  1 140 209      15.51485126
  1 140 210      15.32781785
  1 140 211      15.06831606
  1 140 212      14.88708142
  1 139 212      14.75127284
  1 139 213      14.53735160
  1 139 214      14.28591627
  1 139 215      14.03831837
  1 139 216      13.79403933
  1 139 217      13.54378037
  1 139 218      13.35663917
  1 140 218      13.22763415
  1 140 219      13.02831369
  1 140 220      12.77216442
  1 140 221      12.53938256
  1 141 221      12.41587802
  1 141 222      12.27504592
  1 141 223      12.03096071
  1 141 224      11.78914419
  1 141 225      11.55105170
  1 140 225      11.42796744
  1 140 226      11.29914131
  1 140 227      11.05457224
  1 140 228      10.81170983
  1 140 229      10.56854101
  1 140 230      10.32143538
  1 140 231      10.09478731
  1 141 231       9.97005382
  1 141 232       9.82408501
  1 141 233       9.57957511
  1 141 234       9.33686075
  1 141 235       9.09326471
  1 141 236       8.93726993
  1 140 236       8.80633183
  1 140 237       8.57791877
  1 140 238       8.32336819
  1 140 239       8.07855430
  1 140 240       7.82938713
  1 140 241       7.57102663
  1 140 242       7.37454271
  1 141 242       7.21034752
  1 141 243       7.01813000
  1 142 243       6.84643336
  1 142 244       6.62825487
  1 142 245       6.45359359
  1 143 245       6.32955645
  1 143 246       6.13415084
  1 142 246       6.01067261
  1 142 247       5.85264684
  1 142 248       5.61990647
  1 141 248       5.45208579
  1 141 249       5.28082891
  1 140 249       5.05333174
  1 140 250       4.88613505
  1 139 250       4.75224119
  1 139 251       4.53264016
  1 139 252       4.30521265
  1 140 252       4.18165246
  1 140 253       4.03475424
  1 140 254       3.77179061
  1 140 255       3.58711703
  1 141 255       3.44120778
  1 141 256       3.22131344
  1 142 256       3.06611229
  1 142 257       2.88022669
  1 142 258       2.69676935
  1 143 258       2.54886549
  1 143 259       2.30497520
  1 143 260       2.04808292
  1 143 261       1.85433121
  1 142 261       1.70991629
  1 142 262       1.48218850
  1 142 263       1.32080418
  1 141 263       1.17638926
  1 141 264       0.93169206
  1 140 264       0.78308915
  1 138 265       0.16880761
END period  1

