BEGIN options
  SAVE_FLOWS
END options

BEGIN dimensions
  MAXBOUND  100
END dimensions

BEGIN period  1
  1 58 11     139.20102850
  1 57 12     137.50677832
  1 57 13     135.90824394
  1 57 14     134.32978890
  1 57 15     132.55570644
  1 56 15     130.68368195
  1 56 16     129.50694199
  1 55 16     128.43487379
  1 55 17     126.84586406
  1 55 18     125.23699488
  1 55 19     123.98152558
  1 54 19     123.09991023
  1 54 20     121.90435648
  1 53 20     120.13790009
  1 53 21     119.10406905
  1 52 21     118.06253578
  1 52 22     116.72541291
  1 51 22     115.57538964
  1 51 23     113.95972368
  1 51 24     112.36836097
  1 51 25     110.75170039
  1 51 26     109.69220312
  1 50 26     108.77850411
  1 50 27     106.99815807
  1 50 28     105.20234786
  1 49 28     104.25171693
  1 50 29     103.16312547
  1 50 30     101.49526034
  1 50 31      99.82307495
  1 50 32      98.92031198
  1 51 32      98.01847543
  1 51 33      96.32185051
  1 51 34      94.63319243
  1 51 35      93.25785553
  1 52 35      92.38480034
  1 51 36      91.89380889
  1 52 36      91.02834372
  1 52 37      89.36859025
  1 52 38      88.08520316
  1 53 38      87.21484666
  1 53 39      85.86763626
  1 53 40      84.25781582
  1 53 41      82.62217320
  1 53 42      80.94186145
  1 53 43      79.28512352
  1 53 44      77.60866042
  1 53 45      75.91090356
  1 53 46      74.14017251
  1 53 47      72.35653297
  1 53 48      70.72560223
  1 53 49      69.14493216
  1 52 49      68.32441092
  1 52 50      67.45508156
  1 52 51      65.81413013
  1 52 52      64.19747553
  1 52 53      62.57493410
  1 52 54      61.27408326
  1 51 54      60.14680289
  1 51 55      58.71483935
  1 51 56      57.07751129
  1 51 57      55.92028599
  1 50 57      55.05061901
  1 50 58      53.69106147
  1 50 59      52.09402656
  1 50 60      50.49656227
  1 50 61      48.89084141
  1 50 62      47.24424606
  1 50 63      46.36631319
  1 49 63      45.55584063
  1 49 64      43.95379007
  1 49 65      42.27040363
  1 49 66      40.98636413
  1 48 66      40.09418299
  1 48 67      38.78406900
  1 48 68      37.11040755
  1 48 69      36.03320189
  1 47 69      35.18147304
  1 47 70      33.76636251
  1 47 71      32.09140036
  1 47 72      30.42299928
  1 47 73      28.77357043
  1 47 74      27.11495748
  1 47 75      25.50339398
  1 47 76      23.90844484
  1 47 77      22.29835509
  1 47 78      20.68994677
  1 47 79      19.05411138
  1 47 80      17.40104895
  1 47 81      15.73861717
  1 48 81      14.72185324
  1 48 82      13.70563085
  1 48 83      12.35008175
  1 47 83      11.18271500
  1 47 84       9.69531677
  1 47 85       7.97517720
  1 47 86       6.81123134
  1 48 86       5.81113014
  1 48 87       4.20702549
  1 48 88       2.97913788
  1 47 88       2.02458599
END period  1

