BEGIN options
  SAVE_FLOWS
END options

BEGIN dimensions
  MAXBOUND  176
END dimensions

BEGIN period  1
  1 114 2     167.04203506       0.01000000     165.04203506
  1 114 3     163.29048240       0.01000000     161.29048240
  1 113 3     156.42529154       0.01000000     154.42529154
  1 113 4     155.12655237       0.01000000     153.12655237
  1 113 5     152.23456211       0.01000000     150.23456211
  1 113 6     150.70721218       0.01000000     148.70721218
  1 113 7     149.18399839       0.01000000     147.18399839
  1 113 8     147.66134339       0.01000000     145.66134339
  1 113 9     146.24400181       0.01000000     144.24400181
  1 112 9     144.80350672       0.01000000     142.80350672
  1 111 9     143.22436109       0.01000000     141.22436109
  1 110 9     142.27879311       0.01000000     140.27879311
  1 110 10     141.19014871       0.01000000     139.19014871
  1 110 11     140.10638580       0.01000000     138.10638580
  1 109 11     139.00723562       0.01000000     137.00723562
  1 109 12     137.88169841       0.01000000     135.88169841
  1 108 12     137.07334368       0.01000000     135.07334368
  1 108 13     135.67513154       0.01000000     133.67513154
  1 108 14     134.13382332       0.01000000     132.13382332
  1 108 15     132.57283854       0.01000000     130.57283854
  1 108 16     131.04467624       0.01000000     129.04467624
  1 107 16     130.16109970       0.01000000     128.16109970
  1 107 17     127.61484130       0.01000000     125.61484130
  1 106 17     125.82904886       0.01000000     123.82904886
  1 105 17     123.79638336       0.01000000     121.79638336
  1 105 18     123.24067664       0.01000000     121.24067664
  1 104 18     122.46900551       0.01000000     120.46900551
  1 104 19     121.73685372       0.01000000     119.73685372
  1 103 19     121.07951906       0.01000000     119.07951906
  1 103 20     120.28723336       0.01000000     118.28723336
  1 102 20     119.57535499       0.01000000     117.57535499
  1 102 21     117.61923647       0.01000000     115.61923647
  1 101 21     116.21459792       0.01000000     114.21459792
  1 101 22     113.07225657       0.01000000     111.07225657
  1 101 23     112.02193316       0.01000000     110.02193316
  1 101 24     110.97449169       0.01000000     108.97449169
  1 101 25     109.91222232       0.01000000     107.91222232
  1 101 26     107.34521722       0.01000000     105.34521722
  1 101 27     106.32580708       0.01000000     104.32580708
  1 100 27     105.44839777       0.01000000     103.44839777
  1 100 28     103.14000000       0.01000000     101.14000000
  1 100 29     101.74621031       0.01000000      99.74621031
  1 99 29      97.77507362       0.01000000      95.77507362
  1 99 30      96.92577795       0.01000000      94.92577795
  1 99 31      95.88494487       0.01000000      93.88494487
  1 99 32      95.06939558       0.01000000      93.06939558
  1 100 32      94.66556112       0.01000000      92.66556112
  1 100 33      94.25068191       0.01000000      92.25068191
  1 100 34      93.00000000       0.01000000      91.00000000
  1 100 35      93.00000000       0.01000000      91.00000000
  1 100 36      93.00000000       0.01000000      91.00000000
  1 101 36      93.00000000       0.01000000      91.00000000
  1 101 37      91.88757108       0.01000000      89.88757108
  1 101 38      88.51266463       0.01000000      86.51266463
  1 101 39      88.35496955       0.01000000      86.35496955
  1 102 39      88.43136076       0.01000000      86.43136076
  1 102 40      87.71335339       0.01000000      85.71335339
  1 102 41      85.90558685       0.01000000      83.90558685
  1 102 42      82.28999461       0.01000000      80.28999461
  1 102 43      80.84114417       0.01000000      78.84114417
  1 103 43      79.97671431       0.01000000      77.97671431
  1 103 44      78.21076971       0.01000000      76.21076971
  1 103 45      77.40735639       0.01000000      75.40735639
  1 103 46      76.49955801       0.01000000      74.49955801
  1 104 46      75.65428023       0.01000000      73.65428023
  1 104 47      74.27598026       0.01000000      72.27598026
  1 104 48      72.24893055       0.01000000      70.24893055
  1 105 48      69.36109092       0.01000000      67.36109092
  1 105 49      69.02804742       0.01000000      67.02804742
  1 105 50      67.38132875       0.01000000      65.38132875
  1 105 51      65.40207751       0.01000000      63.40207751
  1 105 52      62.53362036       0.01000000      60.53362036
  1 105 53      62.86434589       0.01000000      60.86434589
  1 105 54      63.39603974       0.01000000      61.39603974
  1 105 55      62.57968791       0.01000000      60.57968791
  1 105 56      60.68510680       0.01000000      58.68510680
  1 105 57      58.88907525       0.01000000      56.88907525
  1 106 57      58.36000000       0.01000000      56.36000000
  1 106 58      57.74277879       0.01000000      55.74277879
  1 106 59      56.68900565       0.01000000      54.68900565
  1 105 59      55.94792412       0.01000000      53.94792412
  1 105 60      54.94936186       0.01000000      52.94936186
  1 105 61      52.61994561       0.01000000      50.61994561
  1 105 62      51.85194792       0.01000000      49.85194792
  1 105 63      51.09552147       0.01000000      49.09552147
  1 105 64      50.46883689       0.01000000      48.46883689
  1 104 64      50.09202027       0.01000000      48.09202027
  1 104 65      49.59369926       0.01000000      47.59369926
  1 104 66      48.42420057       0.01000000      46.42420057
  1 104 67      48.39284224       0.01000000      46.39284224
  1 104 68      47.85537587       0.01000000      45.85537587
  1 103 68      46.96933427       0.01000000      44.96933427
  1 103 69      45.67558961       0.01000000      43.67558961
  1 103 70      43.00000000       0.01000000      41.00000000
  1 103 71      42.28719213       0.01000000      40.28719213
  1 103 72      39.26127107       0.01000000      37.26127107
  1 103 73      38.18612763       0.01000000      36.18612763
  1 102 73      38.56652833       0.01000000      36.56652833
  1 102 74      38.70586317       0.01000000      36.70586317
  1 101 74      38.78783204       0.01000000      36.78783204
  1 101 75      37.64596155       0.01000000      35.64596155
  1 101 76      33.51435236       0.01000000      31.51435236
  1 101 77      33.70896911       0.01000000      31.70896911
  1 101 78      33.80940739       0.01000000      31.80940739
  1 100 78      33.81574215       0.01000000      31.81574215
  1 100 79      32.61034523       0.01000000      30.61034523
  1 100 80      31.28521495       0.01000000      29.28521495
  1 100 81      29.96885424       0.01000000      27.96885424
  1 100 82      28.01213080       0.01000000      26.01213080
  1 100 83      28.03667718       0.01000000      26.03667718
  1 100 84      28.05217828       0.01000000      26.05217828
  1 99 84      28.06452482       0.01000000      26.06452482
  1 99 85      28.08609344       0.01000000      26.08609344
  1 99 86      28.11144920       0.01000000      26.11144920
  1 99 87      27.49471615       0.01000000      25.49471615
  1 99 88      26.76497286       0.01000000      24.76497286
  1 98 88      26.12870336       0.01000000      24.12870336
  1 98 89      24.92605383       0.01000000      22.92605383
  1 98 90      23.60812141       0.01000000      21.60812141
  1 98 91      22.74516884       0.01000000      20.74516884
  1 97 91      22.07050555       0.01000000      20.07050555
  1 97 92      20.91420204       0.01000000      18.91420204
  1 97 93      19.86124977       0.01000000      17.86124977
  1 96 93      19.12909809       0.01000000      17.12909809
  1 96 94      17.12791938       0.01000000      15.12791938
  1 96 95      16.51806027       0.01000000      14.51806027
  1 96 96      16.15037986       0.01000000      14.15037986
  1 95 96      15.84340689       0.01000000      13.84340689
  1 95 97      15.29376421       0.01000000      13.29376421
  1 95 98      14.75430825       0.01000000      12.75430825
  1 94 98      14.44631007       0.01000000      12.44631007
  1 94 99      14.06972019       0.01000000      12.06972019
  1 94 100      13.45414379       0.01000000      11.45414379
  1 94 101      12.87589724       0.01000000      10.87589724
  1 93 101      12.47212581       0.01000000      10.47212581
  1 93 102      12.38309404       0.01000000      10.38309404
  1 94 102      12.09160824       0.01000000      10.09160824
  1 94 103      11.60001206       0.01000000       9.60001206
  1 93 103      11.30746193       0.01000000       9.30746193
  1 94 104      10.95290999       0.01000000       8.95290999
  1 94 105      10.35173333       0.01000000       8.35173333
  1 94 106       9.76484656       0.01000000       7.76484656
  1 94 107       9.19165060       0.01000000       7.19165060
  1 94 108       8.61789300       0.01000000       6.61789300
  1 94 109       8.04277443       0.01000000       6.04277443
  1 94 110       7.47006228       0.01000000       5.47006228
  1 94 111       6.88885895       0.01000000       4.88885895
  1 94 112       6.51193384       0.01000000       4.51193384
  1 95 112       6.22525313       0.01000000       4.22525313
  1 95 113       5.57117569       0.01000000       3.57117569
  1 94 113       5.36529447       0.01000000       3.36529447
  1 94 114       5.05691056       0.01000000       3.05691056
  1 94 115       4.62881440       0.01000000       2.62881440
  1 94 116       4.20618808       0.01000000       2.20618808
  1 94 117       3.85024511       0.01000000       1.85024511
  1 95 117       3.58282941       0.01000000       1.58282941
  1 95 118       3.26909052       0.01000000       1.26909052
  1 96 118       3.01956642       0.01000000       1.01956642
  1 96 119       2.74804163       0.01000000       0.74804163
  1 96 120       2.51774830       0.01000000       0.51774830
  1 95 120       2.25670246       0.01000000       0.25670246
  1 95 121       1.95333735       0.01000000      -0.04666265
  1 94 121       1.63778582       0.01000000      -0.36221418
  1 94 122       1.18038207       0.01000000      -0.81961793
  1 94 123       0.75815864       0.01000000      -1.24184136
  1 94 124       0.38383125       0.01000000      -1.61616875
  1 95 124       0.13909708       0.01000000      -1.86090292
  1 95 125      -0.37745546       0.01000000      -2.37745546
  1 96 125      -0.33060145       0.01000000      -2.33060145
  1 96 126      -0.28518609       0.01000000      -2.28518609
  1 96 127      -0.20489384       0.01000000      -2.20489384
  1 95 127      -0.16314793       0.01000000      -2.16314793
  1 95 128      -0.11694331       0.01000000      -2.11694331
  1 95 129      -0.05336373       0.01000000      -2.05336373
  1 94 129      -0.00427239       0.01000000      -2.00427239
  1 93 130       0.07967260       0.01000000      -1.92032740
END period  1

