BEGIN options
  SAVE_FLOWS
END options

BEGIN dimensions
  MAXBOUND  210
END dimensions

BEGIN period  1
  1 115 20     178.25248980
  1 115 21     176.02658617
  1 115 22     173.75060843
  1 114 24     169.50370536
  1 114 25     167.53038108
  1 114 26     165.58746694
  1 114 27     163.64850018
  1 114 28     161.70993074
  1 114 29     159.45961969
  1 114 30     158.15032506
  1 113 30     157.00734778
  1 112 30     155.35592138
  1 112 29     154.23291939
  1 111 30     152.59025792
  1 111 31     150.81960964
  1 110 31     149.48240812
  1 110 32     147.98876574
  1 109 32     146.68970901
  1 109 33     145.24727004
  1 109 34     143.26185277
  1 109 35     141.29875907
  1 109 36     139.32790317
  1 109 37     137.33170842
  1 109 38     136.21531548
  1 108 38     135.06446427
  1 108 39     133.36559375
  1 107 39     131.47721380
  1 106 39     129.84742363
  1 106 40     127.54403851
  1 105 40     126.25202215
  1 105 41     125.36168670
  1 104 41     124.51750208
  1 104 42     123.50608768
  1 103 42     122.74910137
  1 103 43     121.70492877
  1 102 43     120.80147789
  1 102 44     119.83265617
  1 101 44     118.96815217
  1 101 45     118.06421185
  1 101 46     116.83967293
  1 101 47     115.61776850
  1 101 48     114.39587216
  1 101 49     113.15735419
  1 101 50     111.89392434
  1 101 51     110.89262797
  1 100 51     110.11141376
  1 100 52     109.07212262
  1 100 53     107.79730799
  1 100 54     106.95593394
  1 99 54     105.90964199
  1 99 55     104.66716624
  1 98 55     103.88262825
  1 99 56     102.80738106
  1 99 57     101.51931897
  1 99 58     100.41917194
  1 100 58      99.75519303
  1 100 59      98.95913344
  1 100 60      97.67024356
  1 100 61      96.33527586
  1 100 62      95.05348011
  1 100 63      94.33277397
  1 101 63      93.58090795
  1 101 64      92.30053639
  1 101 65      90.98769335
  1 101 66      90.02080382
  1 102 66      89.37121517
  1 102 67      88.38427991
  1 102 68      87.11615592
  1 102 69      85.77148802
  1 102 70      84.92527777
  1 103 70      84.28559495
  1 102 71      83.53078350
  1 103 71      82.82313226
  1 103 72      81.75149016
  1 103 73      79.11720352
  1 103 74      78.12895426
  1 104 74      77.24218009
  1 104 75      76.11128581
  1 105 75      75.34527070
  1 105 76      74.43770092
  1 105 77      73.10777852
  1 105 78      71.79081898
  1 105 79      70.44857441
  1 105 80      69.10737990
  1 105 81      67.64108540
  1 106 81      67.19946327
  1 106 82      66.51206235
  1 106 83      65.97192747
  1 105 83      65.49963069
  1 105 84      64.67267084
  1 105 85      64.19259228
  1 106 85      63.75909174
  1 106 86      63.28179803
  1 105 86      62.85435833
  1 105 87      62.34969334
  1 106 87      61.88950864
  1 106 88      61.09686722
  1 106 89      60.17959715
  1 106 90      59.29573593
  1 106 91      58.39307873
  1 105 91      57.82500456
  1 105 92      57.25543690
  1 105 93      56.35756938
  1 105 94      55.45981323
  1 105 95      54.57512241
  1 105 96      53.71731628
  1 105 97      52.84967972
  1 105 98      52.00602503
  1 104 98      51.56332388
  1 104 99      51.07661050
  1 104 100      50.18041790
  1 104 101      49.30186758
  1 104 102      48.43171145
  1 104 103      47.78654969
  1 103 103      47.34531194
  1 103 104      46.67978093
  1 103 105      45.81922071
  1 103 106      44.94272788
  1 103 107      43.97422826
  1 102 107      43.32076090
  1 102 108      42.63110235
  1 102 109      41.64524521
  1 102 110      40.79351323
  1 102 111      40.34235940
  1 101 111      39.88979445
  1 101 112      39.00440007
  1 101 113      38.21130753
  1 100 113      37.72435208
  1 100 114      37.12316837
  1 100 115      36.23940787
  1 100 116      35.37714013
  1 100 117      34.52235529
  1 100 118      33.66554682
  1 100 119      32.80869800
  1 100 120      31.98318361
  1 99 120      31.54760236
  1 99 121      31.07710816
  1 99 122      30.21141216
  1 99 123      29.34459700
  1 99 124      28.43786907
  1 99 125      27.92724462
  1 98 125      27.48893152
  1 98 126      26.65481903
  1 98 127      25.78457623
  1 98 128      24.09524497
  1 98 129      23.65392694
  1 97 129      23.30410383
  1 97 130      22.70110987
  1 97 131      22.00631443
  1 97 132      21.65678891
  1 96 132      21.27292308
  1 96 133      20.54240362
  1 96 134      20.14155957
  1 95 134      19.80169324
  1 95 135      19.18005751
  1 95 136      18.50363105
  1 95 137      17.95503129
  1 94 137      17.60656205
  1 94 138      17.11435404
  1 94 139      16.43900181
  1 94 140      15.77504004
  1 94 141      15.34693956
  1 93 141      14.98048658
  1 93 142      13.79443691
  1 93 143      13.32693894
  1 93 144      12.86801764
  1 93 145      12.40131951
  1 93 146      11.93514799
  1 94 146      11.69474878
  1 94 147      11.44613858
  1 94 148      10.98198869
  1 94 149      10.52706709
  1 94 150      10.07374180
  1 94 151       9.61745332
  1 94 152       9.16276211
  1 94 153       8.71477626
  1 93 153       8.48765534
  1 94 154       8.24741074
  1 94 155       7.78428086
  1 94 156       7.33054690
  1 94 157       6.87241072
  1 94 158       6.48104450
  1 93 158       6.10053641
  1 93 159       5.91961858
  1 93 160       5.65360651
  1 93 161       5.47481328
  1 94 161       5.32507350
  1 94 162       5.09219132
  1 95 162       4.90974626
  1 95 163       4.70953948
  1 95 164       4.43259882
  1 95 165       4.14556051
  1 95 166       3.97963253
  1 94 166       3.79243211
  1 93 166       3.57697212
  1 93 167       3.39941168
  1 93 168       3.12892687
  1 93 169       2.87377642
  1 94 169       2.73567478
  1 94 170       2.56745202
  1 94 171       2.32528332
  1 95 171       2.15931159
  1 95 172       1.92134250
  1 95 173       1.75744497
  1 96 173       1.62514565
  1 96 174       1.48879188
  1 95 174       1.33498657
  1 95 175       1.07330798
  1 94 175       0.91887102
  1 94 176       0.72206734
END period  1

