BEGIN options
  SAVE_FLOWS
END options

BEGIN dimensions
  MAXBOUND  165
END dimensions

BEGIN period  1
  1 86 16     170.38761654
  1 86 17     164.42425587
  1 86 18     155.25375088
  1 86 19     152.20947531
  1 86 20     150.64758530
  1 86 21     149.10775787
  1 86 22     147.57108547
  1 86 23     145.97825294
  1 86 24     145.12520004
  1 85 24     144.13108202
  1 84 24     142.13635449
  1 83 24     140.72640304
  1 83 25     139.30378171
  1 82 25     138.23485110
  1 82 26     137.27811086
  1 82 27     135.57614228
  1 82 28     134.02071541
  1 82 29     132.46172788
  1 82 30     131.16440165
  1 81 30     130.33144085
  1 81 31     127.35842389
  1 80 31     126.52665141
  1 80 32     125.88377836
  1 79 32     123.13652094
  1 79 33     122.26430750
  1 78 33     121.46200479
  1 78 34     120.38340056
  1 77 34     119.58938698
  1 77 35     117.35207275
  1 76 35     116.28655735
  1 76 36     115.14496620
  1 76 37     112.38876414
  1 76 38     111.16392094
  1 76 39     109.92477668
  1 76 40     107.19693428
  1 76 41     106.09326874
  1 75 41     105.18385695
  1 75 42     103.00000000
  1 75 43     100.67519809
  1 74 43      97.96466667
  1 74 44      97.24310069
  1 74 45      96.37590213
  1 75 45      95.92580738
  1 75 46      95.22236440
  1 75 47      94.34839423
  1 75 48      93.00000000
  1 75 49      93.00000000
  1 75 50      93.00000000
  1 76 50      93.00000000
  1 76 51      91.78388894
  1 76 52      88.00000000
  1 76 53      88.00000000
  1 76 54      87.28631981
  1 77 54      86.47739586
  1 77 55      85.51977575
  1 77 56      82.16774536
  1 77 57      80.45253550
  1 77 58      78.00000000
  1 77 59      77.83545871
  1 78 59      76.91148496
  1 78 60      75.57153765
  1 79 60      74.72498371
  1 79 61      72.37262935
  1 79 62      71.12709510
  1 79 63      69.87435038
  1 79 64      66.76899161
  1 79 65      63.00000000
  1 79 66      63.00000000
  1 79 67      63.00000000
  1 79 68      62.20139126
  1 79 69      60.60680117
  1 79 70      59.28349744
  1 80 70      58.00000000
  1 80 71      57.42413370
  1 80 72      56.22279519
  1 80 73      55.48588928
  1 79 73      54.76843932
  1 79 74      53.00000000
  1 79 75      52.35950880
  1 79 76      51.10090143
  1 79 77      49.86571132
  1 79 78      48.00000000
  1 79 79      48.00000000
  1 78 79      47.29258131
  1 78 80      45.67085730
  1 78 81      44.23108187
  1 78 82      46.73671352
  1 78 83      43.00000000
  1 78 84      42.38924512
  1 77 84      41.42229840
  1 77 85      40.72955318
  1 78 85      38.83348934
  1 77 86      38.00000000
  1 76 86      38.00000000
  1 76 87      38.00000000
  1 76 88      36.78625829
  1 76 89      33.00000000
  1 76 90      33.00000000
  1 76 91      33.00000000
  1 75 91      33.00000000
  1 75 92      31.73662433
  1 75 93      28.00000000
  1 75 94      28.00000000
  1 75 95      28.00000000
  1 75 96      28.00000000
  1 75 97      28.00000000
  1 75 98      28.00000000
  1 74 98      28.00000000
  1 74 99      28.00000000
  1 74 100      27.09365481
  1 74 101      25.29681995
  1 74 102      22.69117562
  1 73 102      22.29076934
  1 73 103      21.77982983
  1 73 104      20.94882474
  1 73 105      20.26315327
  1 72 105      19.84456866
  1 72 106      19.25917301
  1 72 107      17.56984081
  1 72 108      16.95808580
  1 71 108      16.54142691
  1 71 109      15.87532041
  1 71 110      15.00827930
  1 71 111      14.15633583
  1 71 112      13.71808894
  1 70 112      13.29872473
  1 70 113      11.79936233
  1 70 114      11.41189596
  1 70 115      11.04361717
  1 70 116      10.67127920
  1 70 117      10.28865117
  1 70 118       9.98133143
  1 71 118       9.79771764
  1 71 119       9.54933778
  1 71 120       9.22142281
  1 70 120       9.03949459
  1 70 121       8.82367323
  1 70 122       8.46140131
  1 70 123       8.10704799
  1 71 123       7.92087254
  1 71 124       7.72624031
  1 71 125       7.36395780
  1 71 126       7.12729898
  1 70 126       6.93328904
  1 70 127       6.61130630
  1 70 128       6.23900023
  1 70 129       5.92908774
  1 71 129       5.70250462
  1 71 130       5.36898653
  1 71 131       5.11146818
  1 72 131       4.92811338
  1 71 132       4.55085074
  1 71 133       4.22687503
  1 70 133       3.94356552
  1 70 134       3.57972611
  1 70 135       3.20745970
  1 70 136       2.91780752
  1 71 136       2.70186381
  1 71 137       2.35635462
  1 72 137       2.12675996
  1 72 138       1.92695244
  1 72 139       1.58335377
  1 71 139       1.37688027
  1 71 140       1.10082153
  1 70 141       0.51237828
END period  1

