BEGIN options
  SAVE_FLOWS
END options

BEGIN dimensions
  MAXBOUND  210
END dimensions

BEGIN period  1
  1 115 20     161.86845521
  1 115 21     158.00000000
  1 115 22     157.16127896
  1 114 24     152.26868276
  1 114 25     150.82573854
  1 114 26     149.40503097
  1 114 27     147.98720983
  1 114 28     146.56967922
  1 114 29     144.92419532
  1 114 30     143.96680624
  1 113 30     143.13103258
  1 112 30     141.92346816
  1 112 29     141.10230092
  1 111 30     139.90114565
  1 111 31     138.60640320
  1 110 31     137.62860790
  1 110 32     136.53641912
  1 109 32     135.58651625
  1 109 33     134.53176868
  1 109 34     133.07998176
  1 109 35     131.64451839
  1 109 36     130.20337911
  1 109 37     128.00000000
  1 109 38     128.00000000
  1 108 38     128.00000000
  1 108 39     128.00000000
  1 107 39     127.19441493
  1 106 39     126.13648705
  1 106 40     125.41071670
  1 105 40     124.06920838
  1 105 41     123.14476775
  1 104 41     122.26824581
  1 104 42     121.21808818
  1 103 42     120.43210478
  1 103 43     119.34793411
  1 102 43     118.00000000
  1 102 44     118.00000000
  1 101 44     117.19674870
  1 101 45     113.00000000
  1 101 46     112.50665068
  1 101 47     111.52008587
  1 101 48     110.53352760
  1 101 49     109.53354903
  1 101 50     107.22088752
  1 101 51     105.99416193
  1 100 51     105.03706722
  1 100 52     103.00000000
  1 100 53     102.04077445
  1 100 54     100.80176307
  1 99 54      97.56148147
  1 99 55      96.92519764
  1 98 55      96.52342817
  1 99 56      95.97278370
  1 99 57      95.31315467
  1 99 58      94.74975875
  1 100 58      94.40972874
  1 100 59      94.00205894
  1 100 60      93.00000000
  1 100 61      93.00000000
  1 100 62      93.00000000
  1 100 63      93.00000000
  1 101 63      92.17568314
  1 101 64      90.54144586
  1 101 65      88.00000000
  1 101 66      88.00000000
  1 102 66      88.00000000
  1 102 67      88.00000000
  1 102 68      87.19093854
  1 102 69      85.49684802
  1 102 70      84.43074334
  1 103 70      82.50020081
  1 102 71      81.73954000
  1 103 71      81.02640485
  1 103 72      79.94645813
  1 103 73      77.52327030
  1 103 74      76.85290870
  1 104 74      76.25138095
  1 104 75      75.48425859
  1 105 75      74.96464564
  1 105 76      74.34901155
  1 105 77      72.38040195
  1 105 78      71.14179847
  1 105 79      69.87941437
  1 105 80      67.18541340
  1 105 81      65.99257174
  1 106 81      65.15278517
  1 106 82      63.00000000
  1 106 83      63.00000000
  1 105 83      63.00000000
  1 105 84      63.00000000
  1 105 85      63.00000000
  1 106 85      62.43152468
  1 106 86      61.75912854
  1 105 86      61.15696514
  1 105 87      60.44600921
  1 106 87      59.79771569
  1 106 88      58.00000000
  1 106 89      57.53844969
  1 106 90      56.59809293
  1 106 91      55.63773876
  1 105 91      55.03335386
  1 105 92      54.42737998
  1 105 93      53.63193020
  1 105 94      54.91037552
  1 105 95      56.17021520
  1 105 96      56.76931668
  1 105 97      51.69460151
  1 105 98      48.00000000
  1 104 98      48.00000000
  1 104 99      48.00000000
  1 104 100      48.00000000
  1 104 101      48.00000000
  1 104 102      47.15950229
  1 104 103      45.92892832
  1 103 103      45.08731663
  1 103 104      43.00000000
  1 103 105      43.00000000
  1 103 106      43.00000000
  1 103 107      41.92089330
  1 102 107      40.57456417
  1 102 108      38.00000000
  1 102 109      38.00000000
  1 102 110      36.78804265
  1 102 111      35.50401618
  1 101 111      33.00000000
  1 101 112      33.00000000
  1 101 113      33.00000000
  1 100 113      33.00000000
  1 100 114      33.00000000
  1 100 115      32.15736134
  1 100 116      30.48549121
  1 100 117      28.00000000
  1 100 118      28.00000000
  1 100 119      28.00000000
  1 100 120      28.00000000
  1 99 120      28.00000000
  1 99 121      28.00000000
  1 99 122      28.00000000
  1 99 123      28.00000000
  1 99 124      28.00000000
  1 99 125      28.00000000
  1 98 125      27.55719442
  1 98 126      26.63386366
  1 98 127      25.67053802
  1 98 128      24.68494044
  1 98 129      24.04131408
  1 97 129      23.53112560
  1 97 130      22.65170806
  1 97 131      21.63840556
  1 97 132      21.12865108
  1 96 132      20.56881407
  1 96 133      19.50341100
  1 96 134      18.91881264
  1 95 134      17.83552658
  1 95 135      17.48313599
  1 95 136      17.09968582
  1 95 137      16.78869759
  1 94 137      16.59115862
  1 94 138      16.31213754
  1 94 139      15.92929633
  1 94 140      15.55291210
  1 94 141      15.31023206
  1 93 141      15.10249854
  1 93 142      14.75532743
  1 93 143      14.37500458
  1 93 144      14.00165910
  1 93 145      13.62198694
  1 93 146      13.24274320
  1 94 146      13.04717163
  1 94 147      12.84492018
  1 94 148      12.46732109
  1 94 149      12.09722948
  1 94 150      11.72843651
  1 94 151      11.35723290
  1 94 152      10.98732871
  1 94 153      10.62287953
  1 93 153      10.43811022
  1 94 154      10.24266443
  1 94 155       9.86589515
  1 94 156       9.49676972
  1 94 157       9.12406295
  1 94 158       8.80567543
  1 93 158       8.60648194
  1 93 159       8.35000916
  1 93 160       7.97290506
  1 93 161       7.71944415
  1 94 161       7.50717000
  1 94 162       7.17703151
  1 95 162       6.91839370
  1 95 163       6.63457652
  1 95 164       6.24197983
  1 95 165       5.83506851
  1 95 166       5.59984564
  1 94 166       5.33446654
  1 93 166       5.02902609
  1 93 167       4.77731282
  1 93 168       4.39386807
  1 93 169       4.03216163
  1 94 169       3.83638594
  1 94 170       3.59790996
  1 94 171       3.25460670
  1 95 171       3.01932181
  1 95 172       2.68197201
  1 95 173       2.44962755
  1 96 173       2.26207737
  1 96 174       2.06877950
  1 95 174       1.85074197
  1 95 175       1.47978110
  1 94 175       1.26084814
  1 94 176       0.98185526
END period  1

