BEGIN options
  SAVE_FLOWS
END options

BEGIN dimensions
  MAXBOUND  169
END dimensions

BEGIN period  1
  1 114 2     168.04203506       0.00500000     166.04203506
  1 114 3     164.29048240       0.00500000     162.29048240
  1 113 7     150.18399839       0.00500000     148.18399839
  1 113 8     148.66134339       0.00500000     146.66134339
  1 113 9     147.24400181       0.00500000     145.24400181
  1 112 9     145.80350672       0.00500000     143.80350672
  1 111 9     144.22436109       0.00500000     142.22436109
  1 110 10     142.19014871       0.00500000     140.19014871
  1 110 11     141.10638580       0.00500000     139.10638580
  1 109 12     138.88169841       0.00500000     136.88169841
  1 108 12     138.07334368       0.00500000     136.07334368
  1 108 13     136.67513154       0.00500000     134.67513154
  1 108 14     135.13382332       0.00500000     133.13382332
  1 108 15     133.57283854       0.00500000     131.57283854
  1 108 16     132.04467624       0.00500000     130.04467624
  1 107 16     131.16109970       0.00500000     129.16109970
  1 107 17     128.61484130       0.00500000     126.61484130
  1 106 17     126.82904886       0.00500000     124.82904886
  1 105 17     124.79638336       0.00500000     122.79638336
  1 105 18     124.24067664       0.00500000     122.24067664
  1 104 18     123.46900551       0.00500000     121.46900551
  1 104 19     122.73685372       0.00500000     120.73685372
  1 103 19     122.07951906       0.00500000     120.07951906
  1 103 20     121.28723336       0.00500000     119.28723336
  1 102 20     120.57535499       0.00500000     118.57535499
  1 102 21     118.61923647       0.00500000     116.61923647
  1 101 22     114.07225657       0.00500000     112.07225657
  1 101 23     113.02193316       0.00500000     111.02193316
  1 101 24     111.97449169       0.00500000     109.97449169
  1 101 25     110.91222232       0.00500000     108.91222232
  1 101 26     108.34521722       0.00500000     106.34521722
  1 101 27     107.32580708       0.00500000     105.32580708
  1 100 27     106.44839777       0.00500000     104.44839777
  1 100 28     104.14000000       0.00500000     102.14000000
  1 100 29     102.74621031       0.00500000     100.74621031
  1 99 29      98.77507362       0.00500000      96.77507362
  1 99 30      97.92577795       0.00500000      95.92577795
  1 99 31      96.88494487       0.00500000      94.88494487
  1 99 32      96.06939558       0.00500000      94.06939558
  1 100 32      95.66556112       0.00500000      93.66556112
  1 100 33      95.25068191       0.00500000      93.25068191
  1 100 34      94.00000000       0.00500000      92.00000000
  1 100 35      94.00000000       0.00500000      92.00000000
  1 100 36      94.00000000       0.00500000      92.00000000
  1 101 36      94.00000000       0.00500000      92.00000000
  1 101 37      92.88757108       0.00500000      90.88757108
  1 101 38      89.51266463       0.00500000      87.51266463
  1 101 39      89.35496955       0.00500000      87.35496955
  1 102 39      89.43136076       0.00500000      87.43136076
  1 102 40      88.71335339       0.00500000      86.71335339
  1 102 41      86.90558685       0.00500000      84.90558685
  1 102 42      83.28999461       0.00500000      81.28999461
  1 102 43      81.84114417       0.00500000      79.84114417
  1 103 43      80.97671431       0.00500000      78.97671431
  1 103 44      79.21076971       0.00500000      77.21076971
  1 103 45      78.40735639       0.00500000      76.40735639
  1 103 46      77.49955801       0.00500000      75.49955801
  1 104 46      76.65428023       0.00500000      74.65428023
  1 104 47      75.27598026       0.00500000      73.27598026
  1 104 48      73.24893055       0.00500000      71.24893055
  1 105 48      70.36109092       0.00500000      68.36109092
  1 105 49      70.02804742       0.00500000      68.02804742
  1 105 50      68.38132875       0.00500000      66.38132875
  1 105 51      66.40207751       0.00500000      64.40207751
  1 105 52      63.53362036       0.00500000      61.53362036
  1 105 53      63.86434589       0.00500000      61.86434589
  1 105 54      64.39603974       0.00500000      62.39603974
  1 105 55      63.57968791       0.00500000      61.57968791
  1 105 56      61.68510680       0.00500000      59.68510680
  1 105 57      59.88907525       0.00500000      57.88907525
  1 106 57      59.36000000       0.00500000      57.36000000
  1 106 58      58.74277879       0.00500000      56.74277879
  1 106 59      57.68900565       0.00500000      55.68900565
  1 105 59      56.94792412       0.00500000      54.94792412
  1 105 60      55.94936186       0.00500000      53.94936186
  1 105 61      53.61994561       0.00500000      51.61994561
  1 105 62      52.85194792       0.00500000      50.85194792
  1 105 63      52.09552147       0.00500000      50.09552147
  1 105 64      51.46883689       0.00500000      49.46883689
  1 104 64      51.09202027       0.00500000      49.09202027
  1 104 65      50.59369926       0.00500000      48.59369926
  1 104 66      49.42420057       0.00500000      47.42420057
  1 104 67      49.39284224       0.00500000      47.39284224
  1 104 68      48.85537587       0.00500000      46.85537587
  1 103 68      47.96933427       0.00500000      45.96933427
  1 103 69      46.67558961       0.00500000      44.67558961
  1 103 70      44.00000000       0.00500000      42.00000000
  1 103 71      43.28719213       0.00500000      41.28719213
  1 103 72      40.26127107       0.00500000      38.26127107
  1 103 73      39.18612763       0.00500000      37.18612763
  1 102 73      39.56652833       0.00500000      37.56652833
  1 102 74      39.70586317       0.00500000      37.70586317
  1 101 74      39.78783204       0.00500000      37.78783204
  1 101 75      38.64596155       0.00500000      36.64596155
  1 101 76      34.51435236       0.00500000      32.51435236
  1 101 77      34.70896911       0.00500000      32.70896911
  1 101 78      34.80940739       0.00500000      32.80940739
  1 100 78      34.81574215       0.00500000      32.81574215
  1 100 79      33.61034523       0.00500000      31.61034523
  1 100 80      32.28521495       0.00500000      30.28521495
  1 100 81      30.96885424       0.00500000      28.96885424
  1 100 82      29.01213080       0.00500000      27.01213080
  1 100 83      29.03667718       0.00500000      27.03667718
  1 100 84      29.05217828       0.00500000      27.05217828
  1 99 84      29.06452482       0.00500000      27.06452482
  1 99 85      29.08609344       0.00500000      27.08609344
  1 99 86      29.11144920       0.00500000      27.11144920
  1 99 87      28.49471615       0.00500000      26.49471615
  1 99 88      27.76497286       0.00500000      25.76497286
  1 98 88      27.12870336       0.00500000      25.12870336
  1 98 89      25.92605383       0.00500000      23.92605383
  1 98 90      24.60812141       0.00500000      22.60812141
  1 98 91      23.74516884       0.00500000      21.74516884
  1 97 91      23.07050555       0.00500000      21.07050555
  1 97 92      21.91420204       0.00500000      19.91420204
  1 97 93      20.86124977       0.00500000      18.86124977
  1 96 93      20.12909809       0.00500000      18.12909809
  1 96 94      18.12791938       0.00500000      16.12791938
  1 96 95      17.51806027       0.00500000      15.51806027
  1 96 96      17.15037986       0.00500000      15.15037986
  1 95 96      16.84340689       0.00500000      14.84340689
  1 95 97      16.29376421       0.00500000      14.29376421
  1 95 98      15.75430825       0.00500000      13.75430825
  1 94 98      15.44631007       0.00500000      13.44631007
  1 94 99      15.06972019       0.00500000      13.06972019
  1 94 100      14.45414379       0.00500000      12.45414379
  1 94 101      13.87589724       0.00500000      11.87589724
  1 93 101      13.47212581       0.00500000      11.47212581
  1 93 102      13.38309404       0.00500000      11.38309404
  1 94 102      13.09160824       0.00500000      11.09160824
  1 94 103      12.60001206       0.00500000      10.60001206
  1 93 103      12.30746193       0.00500000      10.30746193
  1 94 104      11.95290999       0.00500000       9.95290999
  1 94 105      11.35173333       0.00500000       9.35173333
  1 94 106      10.76484656       0.00500000       8.76484656
  1 94 107      10.19165060       0.00500000       8.19165060
  1 94 108       9.61789300       0.00500000       7.61789300
  1 94 109       9.04277443       0.00500000       7.04277443
  1 94 110       8.47006228       0.00500000       6.47006228
  1 94 111       7.88885895       0.00500000       5.88885895
  1 94 112       7.51193384       0.00500000       5.51193384
  1 95 112       7.22525313       0.00500000       5.22525313
  1 95 113       6.57117569       0.00500000       4.57117569
  1 94 113       6.36529447       0.00500000       4.36529447
  1 94 114       6.05691056       0.00500000       4.05691056
  1 94 115       5.62881440       0.00500000       3.62881440
  1 94 116       5.20618808       0.00500000       3.20618808
  1 94 117       4.85024511       0.00500000       2.85024511
  1 95 117       4.58282941       0.00500000       2.58282941
  1 95 118       4.26909052       0.00500000       2.26909052
  1 96 118       4.01956642       0.00500000       2.01956642
  1 96 119       3.74804163       0.00500000       1.74804163
  1 96 120       3.51774830       0.00500000       1.51774830
  1 95 120       3.25670246       0.00500000       1.25670246
  1 95 121       2.95333735       0.00500000       0.95333735
  1 94 121       2.63778582       0.00500000       0.63778582
  1 94 122       2.18038207       0.00500000       0.18038207
  1 94 123       1.75815864       0.00500000      -0.24184136
  1 94 124       1.38383125       0.00500000      -0.61616875
  1 95 124       1.13909708       0.00500000      -0.86090292
  1 95 125       0.54072812       0.00500000      -1.45927188
  1 96 125       0.49747826       0.00500000      -1.50252174
  1 96 126       0.45555639       0.00500000      -1.54444361
  1 96 127       0.38144047       0.00500000      -1.61855953
  1 95 127       0.34290578       0.00500000      -1.65709422
  1 95 128       0.30025536       0.00500000      -1.69974464
  1 95 129       0.24156652       0.00500000      -1.75843348
  1 94 129       0.19625143       0.00500000      -1.80374857
  1 93 130       0.11876375       0.00500000      -1.88123625
END period  1

