BEGIN options
  SAVE_FLOWS
END options

BEGIN dimensions
  MAXBOUND  278
END dimensions

BEGIN period  1
  1 143 27     168.31984656
  1 144 27     166.02542730
  1 144 28     163.77689439
  1 143 28     161.62673267
  1 143 29     156.57527132
  1 143 30     155.79208283
  1 143 31     155.06807442
  1 143 32     153.50406881
  1 143 33     152.51254239
  1 143 34     151.52299730
  1 143 35     150.53555548
  1 143 36     149.54857157
  1 143 37     148.56155217
  1 143 38     147.64581924
  1 142 38     147.13482622
  1 142 39     146.37261468
  1 141 39     145.10082278
  1 140 39     143.89898504
  1 139 39     143.00771575
  1 139 40     142.15161118
  1 138 40     141.53326924
  1 138 41     140.83337982
  1 138 42     139.99794586
  1 137 42     139.27220945
  1 137 43     138.38633553
  1 136 43     137.79253138
  1 136 44     137.04139650
  1 136 45     136.04403463
  1 136 46     135.05217371
  1 136 47     134.04768034
  1 136 48     133.04221943
  1 136 49     132.02965258
  1 136 50     131.30531554
  1 135 50     130.76135704
  1 135 51     129.76755360
  1 134 51     128.94386852
  1 134 52     128.24118020
  1 133 52     126.93613416
  1 132 52     126.16168737
  1 132 53     124.66276991
  1 131 53     123.93314878
  1 131 54     123.38785291
  1 130 54     122.91746483
  1 130 55     122.34347430
  1 129 55     121.91391986
  1 129 56     121.32415075
  1 129 57     120.84355002
  1 128 57     120.34372632
  1 128 58     119.80864384
  1 127 58     118.39752972
  1 127 59     117.40960523
  1 126 59     116.65125478
  1 126 60     115.70944225
  1 126 61     113.58562277
  1 126 62     112.79546745
  1 127 62     112.38337743
  1 127 63     111.93153422
  1 127 64     111.10247259
  1 127 65     110.55941360
  1 126 65     110.13176949
  1 126 66     108.43403020
  1 126 67     107.16221244
  1 126 68     106.36344987
  1 125 68     105.70837653
  1 125 69     104.00000000
  1 125 70     104.00000000
  1 125 71     104.00000000
  1 124 71     103.05668478
  1 124 72      98.68891073
  1 123 72      98.18872388
  1 123 73      97.66337232
  1 123 74      97.23202027
  1 124 74      96.92177846
  1 124 75      96.43976455
  1 124 76      95.91186117
  1 124 77      95.36458643
  1 124 78      94.80406426
  1 124 79      94.46917657
  1 125 79      94.00000000
  1 125 80      94.00000000
  1 125 81      94.00000000
  1 125 82      94.00000000
  1 125 83      94.00000000
  1 126 83      94.00000000
  1 126 84      93.08321018
  1 126 85      91.37397577
  1 126 86      89.00000000
  1 126 87      89.00000000
  1 127 87      89.00000000
  1 127 88      89.00000000
  1 127 89      89.00000000
  1 127 90      88.20105415
  1 127 91      86.65190422
  1 128 91      85.85295837
  1 128 92      83.45808203
  1 128 93      82.44823478
  1 128 94      81.46175816
  1 128 95      80.59063653
  1 129 95      80.07892327
  1 129 96      79.00000000
  1 129 97      78.61116079
  1 129 98      77.76783265
  1 130 98      77.29193897
  1 130 99      76.76939131
  1 130 100      76.10547127
  1 131 100      75.71586688
  1 131 101      75.11410157
  1 131 102      73.50344138
  1 131 103      72.51285760
  1 131 104      71.52414338
  1 131 105      70.56699012
  1 132 105      70.05176122
  1 132 106      68.17344467
  1 132 107      66.53728587
  1 132 108      64.00000000
  1 132 109      64.00000000
  1 132 110      64.00000000
  1 131 110      64.00000000
  1 131 111      64.00000000
  1 131 112      64.00000000
  1 132 112      64.00000000
  1 132 113      64.00000000
  1 132 114      63.34169705
  1 132 115      62.01446993
  1 132 116      60.62350299
  1 132 117      59.00000000
  1 133 117      59.00000000
  1 133 118      59.00000000
  1 133 119      58.55916380
  1 133 120      57.70571600
  1 132 120      57.20067797
  1 132 121      56.54325887
  1 132 122      55.84280474
  1 131 122      55.34419074
  1 131 123      54.53422677
  1 131 124      54.00000000
  1 132 124      53.67163559
  1 132 125      53.08514465
  1 131 125      52.70792423
  1 131 126      52.22745388
  1 131 127      51.51367457
  1 131 128      50.80608990
  1 131 129      50.08570414
  1 131 130      49.00000000
  1 131 131      49.00000000
  1 130 131      49.00000000
  1 130 132      48.35843175
  1 130 133      47.07706158
  1 130 134      45.82574367
  1 130 135      46.02222333
  1 130 136      48.80863052
  1 129 136      47.96744922
  1 129 137      46.47447477
  1 129 138      44.00000000
  1 129 139      43.34662637
  1 129 140      42.03088345
  1 129 141      39.86056320
  1 129 142      39.57090271
  1 128 142      39.40082171
  1 128 143      39.00000000
  1 127 143      39.00000000
  1 127 144      39.00000000
  1 127 145      39.00000000
  1 127 146      38.19362245
  1 127 147      36.56582878
  1 127 148      35.39834244
  1 126 148      34.00000000
  1 126 149      34.00000000
  1 126 150      34.00000000
  1 126 151      34.00000000
  1 125 151      34.00000000
  1 125 152      34.00000000
  1 125 153      33.16002359
  1 125 154      31.48560422
  1 125 155      29.00000000
  1 125 156      29.00000000
  1 125 157      29.00000000
  1 125 158      29.00000000
  1 125 159      29.00000000
  1 124 159      29.00000000
  1 124 160      29.00000000
  1 124 161      29.00000000
  1 124 162      29.00000000
  1 124 163      29.00000000
  1 124 164      29.00000000
  1 123 164      29.00000000
  1 123 165      29.00000000
  1 123 166      28.49372503
  1 123 167      27.49201122
  1 123 168      26.50380577
  1 123 169      25.97054944
  1 122 169      25.47590599
  1 122 170      23.73151616
  1 122 171      23.18699534
  1 122 172      22.78457646
  1 121 172      22.50639916
  1 121 173      22.08147021
  1 121 174      21.53725117
  1 121 175      21.14412265
  1 120 175      20.86241610
  1 120 176      20.39510273
  1 120 177      19.91426800
  1 119 177      19.64158027
  1 119 178      18.74873064
  1 119 179      18.25525245
  1 119 180      17.76839261
  1 119 181      17.43708009
  1 118 181      17.18529322
  1 118 182      16.76676100
  1 118 183      16.25856541
  1 118 184      15.92667505
  1 117 184      15.67385733
  1 117 185      15.26137420
  1 117 186      14.78075028
  1 117 187      14.28810142
  1 117 188      13.94881255
  1 116 188      13.67632140
  1 116 189      12.87412150
  1 116 190      12.62392918
  1 116 191      12.37811231
  1 116 192      12.13412848
  1 116 193      11.88338930
  1 116 194      11.68479671
  1 117 194      11.55653830
  1 117 195      11.37041277
  1 117 196      11.11942171
  1 117 197      10.87418799
  1 117 198      10.63132041
  1 117 199      10.39057906
  1 117 200      10.14780883
  1 117 201       9.90359022
  1 117 202       9.66109567
  1 117 203       9.41957147
  1 117 204       9.17560915
  1 117 205       8.92761899
  1 117 206       8.68098907
  1 117 207       8.43815021
  1 117 208       8.19682108
  1 117 209       7.95186129
  1 117 210       7.69497242
  1 117 211       7.46286253
  1 116 211       7.33749763
  1 116 212       7.19185954
  1 116 213       6.97960588
  1 117 213       6.85326789
  1 117 214       6.68972861
  1 117 215       6.44248163
  1 118 215       6.27613827
  1 118 216       6.07533645
  1 119 216       5.90794724
  1 119 217       5.76417390
  1 119 218       5.51391955
  1 119 219       5.26114512
  1 119 220       5.12216214
  1 118 220       4.96361286
  1 118 221       4.75749515
  1 117 221       4.53489108
  1 117 222       4.36637809
  1 116 222       4.23252301
  1 116 223       3.97839672
  1 116 224       3.73240080
  1 116 225       3.59477567
  1 117 225       3.46654849
  1 117 226       3.21415954
  1 117 227       3.02208222
  1 118 227       2.86751324
  1 118 228       2.63934324
  1 119 228       2.48619313
  1 119 229       2.31191823
  1 119 230       2.03831749
  1 119 231       1.77951070
  1 119 232       1.53129526
  1 118 232       1.38830316
  1 118 233       1.21578818
  1 118 234       0.98573675
  1 117 234       0.84090500
  1 117 235       0.63206932
  1 116 235       0.43494957
END period  1

