BEGIN options
  SAVE_FLOWS
END options

BEGIN dimensions
  MAXBOUND  101
END dimensions

BEGIN period  1
  1 58 10     173.47969560
  1 58 11     156.69816573
  1 57 12     151.63328137
  1 57 13     148.93080322
  1 57 14     146.26227116
  1 57 15     143.26301188
  1 56 15     140.09817207
  1 56 16     138.10877849
  1 55 16     136.29634274
  1 55 17     133.60996695
  1 55 18     130.89001682
  1 55 19     128.00000000
  1 54 19     128.00000000
  1 54 20     127.02989970
  1 53 20     124.79840575
  1 53 21     123.49240819
  1 52 21     122.17668072
  1 52 22     120.48754669
  1 51 22     116.73252711
  1 51 23     112.17480900
  1 51 24     110.52620778
  1 51 25     106.81616128
  1 51 26     105.28998115
  1 50 26     103.00000000
  1 50 27     101.51683530
  1 50 28      99.10492840
  1 49 28      97.82816024
  1 50 29      96.36610080
  1 50 30      93.00000000
  1 50 31      93.00000000
  1 50 32      93.00000000
  1 51 32      91.77277091
  1 51 33      88.00000000
  1 51 34      86.78545682
  1 51 35      84.76045749
  1 52 35      82.62500150
  1 51 36      82.05427895
  1 52 36      81.04827266
  1 52 37      77.08512295
  1 52 38      75.86545033
  1 53 38      75.03830317
  1 53 39      71.76139652
  1 53 40      66.75851737
  1 53 41      63.00000000
  1 53 42      63.00000000
  1 53 43      61.80728057
  1 53 44      58.00000000
  1 53 45      57.21190829
  1 53 46      55.51238937
  1 53 47      54.27844531
  1 53 48      56.73960346
  1 53 49      51.81470282
  1 52 49      50.57381342
  1 52 50      48.00000000
  1 52 51      46.74991590
  1 52 52      43.00000000
  1 52 53      43.00000000
  1 52 54      41.92089330
  1 51 54      38.00000000
  1 51 55      36.79183420
  1 51 56      33.00000000
  1 51 57      33.00000000
  1 50 57      33.00000000
  1 50 58      31.74603038
  1 50 59      28.00000000
  1 50 60      28.00000000
  1 50 61      28.00000000
  1 50 62      28.00000000
  1 50 63      28.00000000
  1 49 63      27.07666924
  1 49 64      25.16774091
  1 49 65      23.16189655
  1 49 66      21.63189529
  1 48 66      20.56881407
  1 48 67      17.61799616
  1 48 68      16.86203642
  1 48 69      16.37548395
  1 47 69      15.99077489
  1 47 70      15.35159748
  1 47 71      14.59505023
  1 47 72      13.84146649
  1 47 73      13.09645214
  1 47 74      12.34728950
  1 47 75      11.61937817
  1 47 76      10.89897122
  1 47 77      10.17172555
  1 47 78       9.44523936
  1 47 79       8.70636490
  1 47 80       7.95970933
  1 47 81       7.20882180
  1 48 81       6.74956966
  1 48 82       6.29056213
  1 48 83       5.67828743
  1 47 83       5.15101098
  1 47 84       4.47918265
  1 47 85       3.70222966
  1 47 86       3.17649836
  1 48 86       2.72477244
  1 48 87       2.00023013
  1 48 88       1.44561760
  1 47 88       1.01446541
END period  1

