BEGIN options
  SAVE_FLOWS
END options

BEGIN dimensions
  MAXBOUND  169
END dimensions

BEGIN period  1
  1 86 17     139.73212505
  1 86 18     138.87322707
  1 86 19     137.78109583
  1 86 20     136.79471068
  1 86 21     135.82640004
  1 86 22     134.86072351
  1 86 23     133.89540557
  1 86 24     133.11156078
  1 85 24     132.19017960
  1 84 24     130.98036060
  1 84 25     130.31946083
  1 83 25     129.72398766
  1 83 26     128.81031086
  1 82 26     128.11352497
  1 82 27     127.29300391
  1 82 28     126.29650191
  1 82 29     125.31939869
  1 82 30     124.33003063
  1 82 31     123.68101250
  1 81 31     123.12213510
  1 81 32     122.27337606
  1 80 32     121.18009487
  1 79 32     120.36248721
  1 79 33     119.63177859
  1 78 33     118.87737931
  1 78 34     118.05148570
  1 78 35     117.33925158
  1 77 35     116.65469961
  1 77 36     115.77573291
  1 76 36     115.09688203
  1 76 37     114.20095047
  1 76 38     113.22728927
  1 76 39     112.25628010
  1 76 40     111.27162378
  1 76 41     110.23098597
  1 76 42     109.57149197
  1 75 42     109.01067309
  1 75 43     108.05881898
  1 75 44     107.02994331
  1 74 44     106.42419077
  1 74 45     105.55543221
  1 74 46     104.57060661
  1 75 46     104.05070726
  1 75 47     103.22887268
  1 75 48     102.21453890
  1 75 49     101.17996362
  1 75 50     100.13273062
  1 75 51      99.22996766
  1 76 51      98.68877309
  1 76 52      97.98861751
  1 76 53      96.92852901
  1 76 54      95.88288923
  1 76 55      94.85682507
  1 76 56      94.31264666
  1 77 56      93.79051795
  1 77 57      92.77767246
  1 77 58      91.68488384
  1 77 59      90.63050936
  1 77 60      89.88082131
  1 78 60      89.30688037
  1 78 61      88.37677520
  1 79 61      87.74571432
  1 79 62      87.22925483
  1 79 63      86.24246838
  1 79 64      85.26042352
  1 79 65      84.26764250
  1 79 66      83.27739806
  1 79 67      82.27428368
  1 79 68      81.23685478
  1 79 69      80.19691225
  1 79 70      79.19620745
  1 79 71      78.19718977
  1 79 72      77.59952116
  1 80 72      77.05827132
  1 80 73      76.10787123
  1 80 74      75.17944853
  1 79 74      74.58752460
  1 79 75      73.87515903
  1 79 76      72.81790924
  1 79 77      71.80400275
  1 79 78      70.80516255
  1 79 79      69.82112754
  1 79 80      68.84243523
  1 78 80      68.34120060
  1 78 81      67.81043591
  1 78 82      66.79614824
  1 78 83      65.80226274
  1 78 84      64.80635874
  1 78 85      63.81253866
  1 78 86      63.08321690
  1 77 86      62.58951477
  1 77 87      62.15471119
  1 78 87      61.61130400
  1 77 88      60.60186904
  1 76 88      59.83087948
  1 76 89      59.21945398
  1 76 90      58.24532630
  1 76 91      57.24488026
  1 76 92      56.18316375
  1 76 93      55.62273354
  1 75 93      55.10171472
  1 75 94      54.09848597
  1 75 95      53.11742976
  1 75 96      52.14309229
  1 75 97      51.16986035
  1 75 98      50.19040474
  1 75 99      49.20237860
  1 75 100      48.50184259
  1 74 100      48.01065484
  1 74 101      47.20682787
  1 74 102      46.17807569
  1 74 103      45.17598999
  1 74 104      44.18393763
  1 74 105      43.66505879
  1 73 105      43.14086132
  1 73 106      42.11300706
  1 73 107      41.07363670
  1 72 107      40.55488495
  1 72 108      39.98235037
  1 72 109      38.89225116
  1 72 110      37.95968636
  1 71 110      37.46236157
  1 71 111      36.86388902
  1 71 112      35.82944015
  1 71 113      34.79282419
  1 71 114      34.02407768
  1 70 114      33.53079347
  1 70 115      32.75789101
  1 70 116      31.71041507
  1 70 117      30.69970506
  1 70 118      29.70420530
  1 70 119      28.68860132
  1 70 120      27.66344018
  1 70 121      27.03482355
  1 71 121      26.54205962
  1 71 122      25.68529254
  1 71 123      24.96635901
  1 70 123      24.47270460
  1 70 124      23.72651151
  1 70 125      22.75025661
  1 70 126      21.92512653
  1 71 126      21.42354066
  1 71 127      20.76894426
  1 71 128      19.79069423
  1 71 129      19.25671165
  1 70 129      18.73049130
  1 70 130      17.75703512
  1 70 131      16.75227867
  1 70 132      15.98431829
  1 71 132      15.34991935
  1 71 133      14.38077610
  1 72 133      13.78580851
  1 72 134      13.35940057
  1 71 134      12.86430655
  1 71 135      12.17223106
  1 71 136      11.32441711
  1 70 136      10.57106343
  1 70 137       9.55743169
  1 70 138       8.55400757
  1 70 139       7.76985302
  1 71 139       7.18740178
  1 71 140       6.25353950
  1 71 141       5.61820570
  1 72 141       5.07808316
  1 72 142       4.12307465
  1 71 142       3.57099078
  1 71 143       2.86824620
  1 71 144       1.92422555
  1 70 144       1.28321507
END period  1

