BEGIN options
  SAVE_FLOWS
END options

BEGIN dimensions
  MAXBOUND  157
END dimensions

BEGIN period  1
  1 86 16     139.42431708
  1 86 17     138.31243649
  1 86 18     137.23729685
  1 86 19     136.17107338
  1 86 20     135.11819025
  1 86 21     134.06701671
  1 86 22     133.17591796
  1 85 22     132.19017960
  1 84 22     131.01090506
  1 84 23     130.35000528
  1 83 23     129.69872004
  1 83 24     128.78504324
  1 82 24     128.03703717
  1 82 25     127.10925290
  1 82 26     126.03492343
  1 82 27     124.97006078
  1 82 28     123.98152558
  1 81 28     123.42364298
  1 81 29     122.57488394
  1 80 29     121.71409275
  1 80 30     121.06417561
  1 79 30     119.83477767
  1 79 31     119.10406905
  1 78 31     118.39051530
  1 78 32     117.48689999
  1 77 32     116.77116246
  1 77 33     115.89219576
  1 76 33     115.12993050
  1 76 34     114.22304851
  1 76 35     113.16209147
  1 76 36     112.10394477
  1 76 37     111.03194885
  1 76 38     109.97245159
  1 75 38     109.33177122
  1 75 39     108.65573077
  1 75 40     107.52400617
  1 75 41     106.72729947
  1 74 41     105.86147196
  1 74 42     104.79178685
  1 75 42     104.18113533
  1 75 43     103.45441605
  1 75 44     102.35265390
  1 75 45     101.22296332
  1 75 46     100.08855470
  1 75 47      99.18579173
  1 76 47      98.56651243
  1 76 48      97.73365345
  1 76 49      96.59781293
  1 76 50      95.46345731
  1 76 51      94.59414603
  1 77 51      94.03984356
  1 77 52      93.21459650
  1 77 53      92.03881242
  1 77 54      90.89399583
  1 77 55      89.97797764
  1 78 55      89.38164244
  1 78 56      88.45153726
  1 79 56      87.75677406
  1 79 57      87.20713534
  1 79 58      86.13336628
  1 79 59      85.06007258
  1 79 60      83.98209379
  1 79 61      82.89757700
  1 79 62      81.77016731
  1 79 63      80.63784563
  1 79 64      79.54966658
  1 79 65      78.46765964
  1 79 66      77.71815643
  1 80 66      77.12370027
  1 80 67      76.19589424
  1 80 68      75.20204259
  1 79 68      74.56208443
  1 79 69      73.78520503
  1 79 70      72.64431087
  1 79 71      71.54230864
  1 79 72      70.45762230
  1 79 73      69.38532153
  1 79 74      68.60155989
  1 78 74      68.05004668
  1 78 75      67.18071732
  1 78 76      66.09063921
  1 78 77      65.01018622
  1 78 78      63.92540422
  1 78 79      63.11570322
  1 77 79      62.57778380
  1 77 80      62.03766547
  1 78 80      61.40067449
  1 77 81      60.49655429
  1 76 81      59.72991580
  1 76 82      58.97895628
  1 76 83      57.90765397
  1 76 84      56.79747449
  1 76 85      55.92028599
  1 75 85      55.32880678
  1 75 86      54.50045131
  1 75 87      53.42121024
  1 75 88      52.35939574
  1 75 89      51.30022609
  1 75 90      50.23337422
  1 75 91      49.15865408
  1 75 92      48.45811807
  1 74 92      47.92472004
  1 74 93      46.97866070
  1 74 94      45.86026723
  1 74 95      44.78094377
  1 74 96      43.94383327
  1 73 96      43.38553046
  1 73 97      42.55574169
  1 73 98      41.41876138
  1 73 99      40.70561655
  1 72 99      40.09418299
  1 72 100      39.05588376
  1 72 101      38.01515876
  1 71 101      37.47338047
  1 71 102      36.84044402
  1 71 103      35.71403861
  1 71 104      34.59288414
  1 71 105      33.90507528
  1 70 105      33.36183539
  1 70 106      32.36702810
  1 70 107      31.23168499
  1 70 108      30.14995280
  1 70 109      29.05508111
  1 70 110      27.93430656
  1 70 111      27.14482668
  1 71 111      26.60698828
  1 71 112      25.77198457
  1 71 113      24.98812239
  1 70 113      24.45082426
  1 70 114      23.63973729
  1 70 115      22.57054455
  1 70 116      21.81030835
  1 71 116      21.27076970
  1 71 117      20.42259758
  1 71 118      19.55254713
  1 70 118      18.99868161
  1 70 119      18.22975075
  1 70 120      17.13055385
  1 70 121      16.15806815
  1 71 121      15.51597519
  1 71 122      14.62042202
  1 71 123      13.82448855
  1 72 123      13.28436835
  1 71 124      12.18703077
  1 71 125      11.30544078
  1 70 125      10.51682474
  1 70 126       9.40313784
  1 70 127       8.29357573
  1 70 128       7.60947634
  1 71 128       6.95240277
  1 71 129       6.00526288
  1 72 129       5.34383672
  1 72 130       4.52216316
  1 72 131       3.82824602
  1 71 131       3.19797069
  1 71 132       2.13002974
  1 70 132       1.49061552
END period  1

