BEGIN options
  SAVE_FLOWS
END options

BEGIN dimensions
  MAXBOUND  165
END dimensions

BEGIN period  1
  1 86 16     169.71445733
  1 86 17     158.00000000
  1 86 18     156.75625146
  1 86 19     152.11601769
  1 86 20     150.36947752
  1 86 21     148.64760822
  1 86 22     146.92926694
  1 86 23     145.14812615
  1 86 24     144.19422341
  1 85 24     143.08257851
  1 84 24     140.85202979
  1 83 24     139.27539070
  1 83 25     137.68458386
  1 82 25     136.48928186
  1 82 26     135.41943362
  1 82 27     133.51625448
  1 82 28     131.77694154
  1 82 29     130.03364698
  1 82 30     128.00000000
  1 81 30     128.00000000
  1 81 31     128.00000000
  1 80 31     127.69606740
  1 80 32     126.66876034
  1 79 32     124.80194015
  1 79 33     123.64692810
  1 78 33     122.58449399
  1 78 34     121.15617285
  1 77 34     120.10471548
  1 77 35     118.00000000
  1 76 35     117.08551288
  1 76 36     113.00000000
  1 76 37     112.38876414
  1 76 38     111.16392094
  1 76 39     109.92477668
  1 76 40     107.19693428
  1 76 41     106.09326874
  1 75 41     105.18385695
  1 75 42     103.00000000
  1 75 43     100.67519809
  1 74 43      97.96466667
  1 74 44      97.24310069
  1 74 45      96.37590213
  1 75 45      95.92580738
  1 75 46      95.22236440
  1 75 47      94.34839423
  1 75 48      93.00000000
  1 75 49      93.00000000
  1 75 50      93.00000000
  1 76 50      93.00000000
  1 76 51      91.78388894
  1 76 52      88.00000000
  1 76 53      88.00000000
  1 76 54      87.28631981
  1 77 54      86.47739586
  1 77 55      85.51977575
  1 77 56      82.16774536
  1 77 57      80.45253550
  1 77 58      78.00000000
  1 77 59      77.83545871
  1 78 59      76.91148496
  1 78 60      75.57153765
  1 79 60      74.72498371
  1 79 61      72.37262935
  1 79 62      71.12709510
  1 79 63      69.87435038
  1 79 64      66.76899161
  1 79 65      63.00000000
  1 79 66      63.00000000
  1 79 67      63.00000000
  1 79 68      62.20139126
  1 79 69      60.60680117
  1 79 70      59.28349744
  1 80 70      58.00000000
  1 80 71      57.42413370
  1 80 72      56.22279519
  1 80 73      55.48588928
  1 79 73      54.76843932
  1 79 74      53.00000000
  1 79 75      53.85367807
  1 79 76      55.53121168
  1 79 77      55.51458999
  1 79 78      48.00000000
  1 79 79      48.00000000
  1 78 79      48.00000000
  1 78 80      48.00000000
  1 78 81      48.00000000
  1 78 82      46.73671352
  1 78 83      43.00000000
  1 78 84      43.00000000
  1 77 84      43.00000000
  1 77 85      43.00000000
  1 78 85      42.16744671
  1 77 86      38.00000000
  1 76 86      38.00000000
  1 76 87      38.00000000
  1 76 88      36.78625829
  1 76 89      33.00000000
  1 76 90      33.00000000
  1 76 91      33.00000000
  1 75 91      33.00000000
  1 75 92      31.73662433
  1 75 93      28.00000000
  1 75 94      28.00000000
  1 75 95      28.00000000
  1 75 96      28.00000000
  1 75 97      28.00000000
  1 75 98      28.00000000
  1 74 98      28.00000000
  1 74 99      28.00000000
  1 74 100      27.39603738
  1 74 101      26.19688140
  1 74 102      25.13220093
  1 73 102      24.52230151
  1 73 103      23.74995395
  1 73 104      22.48768248
  1 73 105      21.44073943
  1 72 105      20.80435276
  1 72 106      19.91435829
  1 72 107      17.75815935
  1 72 108      17.41422336
  1 71 108      17.17997275
  1 71 109      16.80547970
  1 71 110      16.31801881
  1 71 111      15.83904599
  1 71 112      15.59265834
  1 70 112      15.35688676
  1 70 113      14.88019065
  1 70 114      14.39071034
  1 70 115      13.92546942
  1 70 116      13.45510059
  1 70 117      12.97173250
  1 70 118      12.58350021
  1 71 118      12.35154373
  1 71 119      12.03776928
  1 71 120      11.62351934
  1 70 120      11.39369222
  1 70 121      11.12104843
  1 70 122      10.66339589
  1 70 123      10.21574679
  1 71 123       9.98055422
  1 71 124       9.73467831
  1 71 125       9.27701240
  1 71 126       8.97804496
  1 70 126       8.73295519
  1 70 127       8.32619936
  1 70 128       7.85587083
  1 70 129       7.46436315
  1 71 129       7.17812418
  1 71 130       6.75679591
  1 71 131       6.43147695
  1 72 131       6.19984766
  1 71 132       5.72325757
  1 71 133       5.31398404
  1 70 133       4.95608350
  1 70 134       4.49645078
  1 70 135       4.02616306
  1 70 136       3.66169244
  1 71 136       3.38836074
  1 71 137       2.95419281
  1 72 137       2.66270624
  1 72 138       2.40622294
  1 72 139       1.97503494
  1 71 139       1.71335330
  1 71 140       1.36173455
  1 70 141       0.62107884
END period  1

