BEGIN options
  SAVE_FLOWS
END options

BEGIN dimensions
  MAXBOUND  165
END dimensions

BEGIN period  1
  1 86 16     171.38761654
  1 86 17     165.42425587
  1 86 18     156.25375088
  1 86 19     153.20947531
  1 86 20     151.64758530
  1 86 21     150.10775787
  1 86 22     148.57108547
  1 86 23     146.97825294
  1 86 24     146.12520004
  1 85 24     145.13108202
  1 84 24     143.13635449
  1 83 24     141.72640304
  1 83 25     140.30378171
  1 82 25     139.23485110
  1 82 26     138.27811086
  1 82 27     136.57614228
  1 82 28     135.02071541
  1 82 29     133.46172788
  1 82 30     132.16440165
  1 81 30     131.33144085
  1 81 31     128.35842389
  1 80 31     127.52665141
  1 80 32     126.88377836
  1 79 32     124.13652094
  1 79 33     123.26430750
  1 78 33     122.46200479
  1 78 34     121.38340056
  1 77 34     120.58938698
  1 77 35     118.35207275
  1 76 35     117.28655735
  1 76 36     116.14496620
  1 76 37     113.38876414
  1 76 38     112.16392094
  1 76 39     110.92477668
  1 76 40     108.19693428
  1 76 41     107.09326874
  1 75 41     106.18385695
  1 75 42     104.00000000
  1 75 43     101.67519809
  1 74 43      98.96466667
  1 74 44      98.24310069
  1 74 45      97.37590213
  1 75 45      96.92580738
  1 75 46      96.22236440
  1 75 47      95.34839423
  1 75 48      94.00000000
  1 75 49      94.00000000
  1 75 50      94.00000000
  1 76 50      94.00000000
  1 76 51      92.78388894
  1 76 52      89.00000000
  1 76 53      89.00000000
  1 76 54      88.28631981
  1 77 54      87.47739586
  1 77 55      86.51977575
  1 77 56      83.16774536
  1 77 57      81.45253550
  1 77 58      79.00000000
  1 77 59      78.83545871
  1 78 59      77.91148496
  1 78 60      76.57153765
  1 79 60      75.72498371
  1 79 61      73.37262935
  1 79 62      72.12709510
  1 79 63      70.87435038
  1 79 64      67.76899161
  1 79 65      64.00000000
  1 79 66      64.00000000
  1 79 67      64.00000000
  1 79 68      63.20139126
  1 79 69      61.60680117
  1 79 70      60.28349744
  1 80 70      59.00000000
  1 80 71      58.42413370
  1 80 72      57.22279519
  1 80 73      56.48588928
  1 79 73      55.76843932
  1 79 74      54.00000000
  1 79 75      53.35950880
  1 79 76      52.10090143
  1 79 77      50.86571132
  1 79 78      49.00000000
  1 79 79      49.00000000
  1 78 79      48.29258131
  1 78 80      46.67085730
  1 78 81      45.23108187
  1 78 82      47.73671352
  1 78 83      44.00000000
  1 78 84      43.38924512
  1 77 84      42.42229840
  1 77 85      41.72955318
  1 78 85      39.83348934
  1 77 86      39.00000000
  1 76 86      39.00000000
  1 76 87      39.00000000
  1 76 88      37.78625829
  1 76 89      34.00000000
  1 76 90      34.00000000
  1 76 91      34.00000000
  1 75 91      34.00000000
  1 75 92      32.73662433
  1 75 93      29.00000000
  1 75 94      29.00000000
  1 75 95      29.00000000
  1 75 96      29.00000000
  1 75 97      29.00000000
  1 75 98      29.00000000
  1 74 98      29.00000000
  1 74 99      29.00000000
  1 74 100      28.09365481
  1 74 101      26.29681995
  1 74 102      23.69117562
  1 73 102      23.29076934
  1 73 103      22.77982983
  1 73 104      21.94882474
  1 73 105      21.26315327
  1 72 105      20.84456866
  1 72 106      20.25917301
  1 72 107      18.56984081
  1 72 108      17.95808580
  1 71 108      17.54142691
  1 71 109      16.87532041
  1 71 110      16.00827930
  1 71 111      15.15633583
  1 71 112      14.71808894
  1 70 112      14.29872473
  1 70 113      12.78250202
  1 70 114      12.36247545
  1 70 115      11.96324887
  1 70 116      11.55962199
  1 70 117      11.14484035
  1 70 118      10.81169542
  1 71 118      10.61265190
  1 71 119      10.34339978
  1 71 120       9.98792892
  1 70 120       9.79071262
  1 70 121       9.55675502
  1 70 122       9.16404007
  1 70 123       8.77990916
  1 71 123       8.57808872
  1 71 124       8.36710084
  1 71 125       7.97437442
  1 71 126       7.71782830
  1 70 126       7.50751501
  1 70 127       7.15847490
  1 70 128       6.75488260
  1 70 129       6.41892704
  1 71 129       6.17330332
  1 71 130       5.81175850
  1 71 131       5.53259996
  1 72 131       5.33383720
  1 71 132       4.92487181
  1 71 133       4.57367125
  1 70 133       4.26655421
  1 70 134       3.87214007
  1 70 135       3.46859077
  1 70 136       3.15459807
  1 71 136       2.92050782
  1 71 137       2.54596425
  1 72 137       2.29707592
  1 72 138       2.08047786
  1 72 139       1.70800535
  1 71 139       1.48418114
  1 71 140       1.18492418
  1 70 141       0.54703192
END period  1

