BEGIN options
  SAVE_FLOWS
END options

BEGIN dimensions
  MAXBOUND  101
END dimensions

BEGIN period  1
  1 58 10     179.21269904
  1 58 11     175.25875965
  1 57 12     170.99635804
  1 57 13     167.25433934
  1 57 14     163.55932452
  1 57 15     159.40636429
  1 56 15     155.02413099
  1 56 16     152.26949338
  1 55 16     149.75988254
  1 55 17     146.04016017
  1 55 18     142.27394870
  1 55 19     139.33501311
  1 54 19     137.27123449
  1 54 20     134.47255556
  1 53 20     126.53015350
  1 53 21     125.00833204
  1 52 21     123.47517274
  1 52 22     121.50689922
  1 51 22     119.81404031
  1 51 23     117.43574539
  1 51 24     115.09322536
  1 51 25     112.71346634
  1 51 26     111.15386365
  1 50 26     109.80887912
  1 50 27     107.18817158
  1 50 28     104.54470047
  1 49 28     103.14535136
  1 50 29     101.54292139
  1 50 30      99.08778817
  1 50 31      96.62629543
  1 50 32      95.29740900
  1 51 32      93.96988626
  1 51 33      91.47241802
  1 51 34      88.98667711
  1 51 35      86.96215173
  1 52 35      85.67699576
  1 51 36      84.95424582
  1 52 36      83.68026255
  1 52 37      78.46836741
  1 52 38      76.66643211
  1 53 38      75.44441101
  1 53 39      73.55286481
  1 53 40      71.29260186
  1 53 41      66.95368449
  1 53 42      65.14496763
  1 53 43      63.36162603
  1 53 44      61.55705192
  1 53 45      59.72955683
  1 53 46      57.82351106
  1 53 47      55.90357036
  1 53 48      54.14800807
  1 53 49      52.44654725
  1 52 49      51.56332388
  1 52 50      50.62756260
  1 52 51      48.86121387
  1 52 52      47.12101868
  1 52 53      45.37448678
  1 52 54      43.97422826
  1 51 54      42.76080402
  1 51 55      41.21941349
  1 51 56      39.45696502
  1 51 57      38.21130753
  1 50 57      37.27518283
  1 50 58      35.81173138
  1 50 59      34.09265516
  1 50 60      32.37311675
  1 50 61      30.64469081
  1 50 62      28.87226687
  1 50 63      27.92724462
  1 49 63      27.05483783
  1 49 64      23.80461248
  1 49 65      22.51150004
  1 49 66      21.52515051
  1 48 66      20.83981142
  1 48 67      19.83343246
  1 48 68      18.54779040
  1 48 69      17.72032262
  1 47 69      17.06605743
  1 47 70      15.97902418
  1 47 71      13.56896729
  1 47 72      12.67694541
  1 47 73      11.79506716
  1 47 74      10.90827856
  1 47 75      10.04664528
  1 47 76       9.19389497
  1 47 77       8.33304963
  1 47 78       7.47310328
  1 47 79       5.89488465
  1 47 80       5.39214244
  1 47 81       4.88655075
  1 48 81       4.57732459
  1 48 82       4.26826313
  1 48 83       3.85600298
  1 47 83       3.50097432
  1 47 84       3.04861520
  1 47 85       2.52547296
  1 47 86       2.17148469
  1 48 86       1.86732613
  1 48 87       1.37947334
  1 48 88       1.00603860
  1 47 88       0.71573285
END period  1

