BEGIN options
  SAVE_FLOWS
END options

BEGIN dimensions
  MAXBOUND  165
END dimensions

BEGIN period  1
  1 86 16     171.38761654       0.01000000     169.38761654
  1 86 17     165.42425587       0.01000000     163.42425587
  1 86 18     156.25375088       0.01000000     154.25375088
  1 86 19     153.20947531       0.01000000     151.20947531
  1 86 20     151.64758530       0.01000000     149.64758530
  1 86 21     150.10775787       0.01000000     148.10775787
  1 86 22     148.57108547       0.01000000     146.57108547
  1 86 23     146.97825294       0.01000000     144.97825294
  1 86 24     146.12520004       0.01000000     144.12520004
  1 85 24     145.13108202       0.01000000     143.13108202
  1 84 24     143.13635449       0.01000000     141.13635449
  1 83 24     141.72640304       0.01000000     139.72640304
  1 83 25     140.30378171       0.01000000     138.30378171
  1 82 25     139.23485110       0.01000000     137.23485110
  1 82 26     138.27811086       0.01000000     136.27811086
  1 82 27     136.57614228       0.01000000     134.57614228
  1 82 28     135.02071541       0.01000000     133.02071541
  1 82 29     133.46172788       0.01000000     131.46172788
  1 82 30     132.16440165       0.01000000     130.16440165
  1 81 30     131.33144085       0.01000000     129.33144085
  1 81 31     128.35842389       0.01000000     126.35842389
  1 80 31     127.52665141       0.01000000     125.52665141
  1 80 32     126.88377836       0.01000000     124.88377836
  1 79 32     124.13652094       0.01000000     122.13652094
  1 79 33     123.26430750       0.01000000     121.26430750
  1 78 33     122.46200479       0.01000000     120.46200479
  1 78 34     121.38340056       0.01000000     119.38340056
  1 77 34     120.58938698       0.01000000     118.58938698
  1 77 35     118.35207275       0.01000000     116.35207275
  1 76 35     117.28655735       0.01000000     115.28655735
  1 76 36     116.14496620       0.01000000     114.14496620
  1 76 37     113.38876414       0.01000000     111.38876414
  1 76 38     112.16392094       0.01000000     110.16392094
  1 76 39     110.92477668       0.01000000     108.92477668
  1 76 40     108.19693428       0.01000000     106.19693428
  1 76 41     107.09326874       0.01000000     105.09326874
  1 75 41     106.18385695       0.01000000     104.18385695
  1 75 42     104.00000000       0.01000000     102.00000000
  1 75 43     101.67519809       0.01000000      99.67519809
  1 74 43      98.96466667       0.01000000      96.96466667
  1 74 44      98.24310069       0.01000000      96.24310069
  1 74 45      97.37590213       0.01000000      95.37590213
  1 75 45      96.92580738       0.01000000      94.92580738
  1 75 46      96.22236440       0.01000000      94.22236440
  1 75 47      95.34839423       0.01000000      93.34839423
  1 75 48      94.00000000       0.01000000      92.00000000
  1 75 49      94.00000000       0.01000000      92.00000000
  1 75 50      94.00000000       0.01000000      92.00000000
  1 76 50      94.00000000       0.01000000      92.00000000
  1 76 51      92.78388894       0.01000000      90.78388894
  1 76 52      89.00000000       0.01000000      87.00000000
  1 76 53      89.00000000       0.01000000      87.00000000
  1 76 54      88.28631981       0.01000000      86.28631981
  1 77 54      87.47739586       0.01000000      85.47739586
  1 77 55      86.51977575       0.01000000      84.51977575
  1 77 56      83.16774536       0.01000000      81.16774536
  1 77 57      81.45253550       0.01000000      79.45253550
  1 77 58      79.00000000       0.01000000      77.00000000
  1 77 59      78.83545871       0.01000000      76.83545871
  1 78 59      77.91148496       0.01000000      75.91148496
  1 78 60      76.57153765       0.01000000      74.57153765
  1 79 60      75.72498371       0.01000000      73.72498371
  1 79 61      73.37262935       0.01000000      71.37262935
  1 79 62      72.12709510       0.01000000      70.12709510
  1 79 63      70.87435038       0.01000000      68.87435038
  1 79 64      67.76899161       0.01000000      65.76899161
  1 79 65      64.00000000       0.01000000      62.00000000
  1 79 66      64.00000000       0.01000000      62.00000000
  1 79 67      64.00000000       0.01000000      62.00000000
  1 79 68      63.20139126       0.01000000      61.20139126
  1 79 69      61.60680117       0.01000000      59.60680117
  1 79 70      60.28349744       0.01000000      58.28349744
  1 80 70      59.00000000       0.01000000      57.00000000
  1 80 71      58.42413370       0.01000000      56.42413370
  1 80 72      57.22279519       0.01000000      55.22279519
  1 80 73      56.48588928       0.01000000      54.48588928
  1 79 73      55.76843932       0.01000000      53.76843932
  1 79 74      54.00000000       0.01000000      52.00000000
  1 79 75      53.35950880       0.01000000      51.35950880
  1 79 76      52.10090143       0.01000000      50.10090143
  1 79 77      50.86571132       0.01000000      48.86571132
  1 79 78      49.00000000       0.01000000      47.00000000
  1 79 79      49.00000000       0.01000000      47.00000000
  1 78 79      48.29258131       0.01000000      46.29258131
  1 78 80      46.67085730       0.01000000      44.67085730
  1 78 81      45.23108187       0.01000000      43.23108187
  1 78 82      47.73671352       0.01000000      45.73671352
  1 78 83      44.00000000       0.01000000      42.00000000
  1 78 84      43.38924512       0.01000000      41.38924512
  1 77 84      42.42229840       0.01000000      40.42229840
  1 77 85      41.72955318       0.01000000      39.72955318
  1 78 85      39.83348934       0.01000000      37.83348934
  1 77 86      39.00000000       0.01000000      37.00000000
  1 76 86      39.00000000       0.01000000      37.00000000
  1 76 87      39.00000000       0.01000000      37.00000000
  1 76 88      37.78625829       0.01000000      35.78625829
  1 76 89      34.00000000       0.01000000      32.00000000
  1 76 90      34.00000000       0.01000000      32.00000000
  1 76 91      34.00000000       0.01000000      32.00000000
  1 75 91      34.00000000       0.01000000      32.00000000
  1 75 92      32.73662433       0.01000000      30.73662433
  1 75 93      29.00000000       0.01000000      27.00000000
  1 75 94      29.00000000       0.01000000      27.00000000
  1 75 95      29.00000000       0.01000000      27.00000000
  1 75 96      29.00000000       0.01000000      27.00000000
  1 75 97      29.00000000       0.01000000      27.00000000
  1 75 98      29.00000000       0.01000000      27.00000000
  1 74 98      29.00000000       0.01000000      27.00000000
  1 74 99      29.00000000       0.01000000      27.00000000
  1 74 100      28.09365481       0.01000000      26.09365481
  1 74 101      26.29681995       0.01000000      24.29681995
  1 74 102      23.69117562       0.01000000      21.69117562
  1 73 102      23.29076934       0.01000000      21.29076934
  1 73 103      22.77982983       0.01000000      20.77982983
  1 73 104      21.94882474       0.01000000      19.94882474
  1 73 105      21.26315327       0.01000000      19.26315327
  1 72 105      20.84456866       0.01000000      18.84456866
  1 72 106      20.25917301       0.01000000      18.25917301
  1 72 107      18.56984081       0.01000000      16.56984081
  1 72 108      17.95808580       0.01000000      15.95808580
  1 71 108      17.54142691       0.01000000      15.54142691
  1 71 109      16.87532041       0.01000000      14.87532041
  1 71 110      16.00827930       0.01000000      14.00827930
  1 71 111      15.15633583       0.01000000      13.15633583
  1 71 112      14.71808894       0.01000000      12.71808894
  1 70 112      14.29872473       0.01000000      12.29872473
  1 70 113      12.78250202       0.01000000      10.78250202
  1 70 114      12.36247545       0.01000000      10.36247545
  1 70 115      11.96324887       0.01000000       9.96324887
  1 70 116      11.55962199       0.01000000       9.55962199
  1 70 117      11.14484035       0.01000000       9.14484035
  1 70 118      10.81169542       0.01000000       8.81169542
  1 71 118      10.61265190       0.01000000       8.61265190
  1 71 119      10.34339978       0.01000000       8.34339978
  1 71 120       9.98792892       0.01000000       7.98792892
  1 70 120       9.79071262       0.01000000       7.79071262
  1 70 121       9.55675502       0.01000000       7.55675502
  1 70 122       9.16404007       0.01000000       7.16404007
  1 70 123       8.77990916       0.01000000       6.77990916
  1 71 123       8.57808872       0.01000000       6.57808872
  1 71 124       8.36710084       0.01000000       6.36710084
  1 71 125       7.97437442       0.01000000       5.97437442
  1 71 126       7.71782830       0.01000000       5.71782830
  1 70 126       7.50751501       0.01000000       5.50751501
  1 70 127       7.15847490       0.01000000       5.15847490
  1 70 128       6.75488260       0.01000000       4.75488260
  1 70 129       6.41892704       0.01000000       4.41892704
  1 71 129       6.17330332       0.01000000       4.17330332
  1 71 130       5.81175850       0.01000000       3.81175850
  1 71 131       5.53259996       0.01000000       3.53259996
  1 72 131       5.33383720       0.01000000       3.33383720
  1 71 132       4.92487181       0.01000000       2.92487181
  1 71 133       4.57367125       0.01000000       2.57367125
  1 70 133       4.26655421       0.01000000       2.26655421
  1 70 134       3.87214007       0.01000000       1.87214007
  1 70 135       3.46859077       0.01000000       1.46859077
  1 70 136       3.15459807       0.01000000       1.15459807
  1 71 136       2.92050782       0.01000000       0.92050782
  1 71 137       2.54596425       0.01000000       0.54596425
  1 72 137       2.29707592       0.01000000       0.29707592
  1 72 138       2.08047786       0.01000000       0.08047786
  1 72 139       1.70800535       0.01000000      -0.29199465
  1 71 139       1.48418114       0.01000000      -0.51581886
  1 71 140       1.18492418       0.01000000      -0.81507582
  1 70 141       0.54703192       0.01000000      -1.45296808
END period  1

