BEGIN options
  SAVE_FLOWS
END options

BEGIN dimensions
  MAXBOUND  101
END dimensions

BEGIN period  1
  1 58 10     179.03121067
  1 58 11     176.88801578
  1 57 12     174.57762192
  1 57 13     172.54929661
  1 57 14     170.54644930
  1 57 15     168.29537707
  1 56 15     165.92002959
  1 56 16     164.42690472
  1 55 16     163.06659425
  1 55 17     161.05035445
  1 55 18     159.00891568
  1 55 19     157.41589387
  1 54 19     156.29724247
  1 54 20     154.78024543
  1 53 20     152.53884967
  1 53 21     151.22705702
  1 52 21     149.90549127
  1 52 22     148.20886205
  1 51 22     146.74963707
  1 51 23     144.69957411
  1 51 24     142.68034869
  1 51 25     140.62902368
  1 51 26     139.28466404
  1 50 26     138.12530279
  1 50 27     135.86628292
  1 50 28     133.58764111
  1 49 28     132.38141822
  1 50 29     131.00014195
  1 50 30     128.88384524
  1 50 31     126.76206671
  1 50 32     125.61658183
  1 51 32     124.47227245
  1 51 33     122.31948344
  1 51 34     120.17680327
  1 51 35     118.43168558
  1 52 35     117.32389587
  1 51 36     116.70089371
  1 52 36     115.60273473
  1 52 37     113.49673062
  1 52 38     111.86828488
  1 53 38     110.76391945
  1 53 39     109.05449051
  1 53 40     107.01184472
  1 53 41     104.93643405
  1 53 42     102.80434426
  1 53 43     100.70216648
  1 53 44      98.57496011
  1 53 45      96.42073482
  1 53 46      94.17391509
  1 53 47      91.91071622
  1 53 48      89.84128429
  1 53 49      87.83562640
  1 52 49      86.79449522
  1 52 50      85.69143310
  1 52 51      83.60928626
  1 52 52      81.55796884
  1 52 53      79.49918182
  1 52 54      77.84857692
  1 51 54      76.41820964
  1 51 55      74.60124034
  1 51 56      72.52369108
  1 51 57      71.05532770
  1 50 57      69.95183717
  1 50 58      68.22674136
  1 50 59      66.20031870
  1 50 60      64.17335120
  1 50 61      62.13590722
  1 50 62      60.04659901
  1 50 63      58.93262019
  1 49 63      57.90423943
  1 49 64      55.87145257
  1 49 65      53.73546141
  1 49 66      52.10618785
  1 48 66      50.97412988
  1 48 67      49.31177130
  1 48 68      47.18811985
  1 48 69      45.82129063
  1 47 69      44.74056119
  1 47 70      42.94497610
  1 47 71      40.81967424
  1 47 72      38.70269748
  1 47 73      36.60979395
  1 47 74      34.50523701
  1 47 75      32.46037952
  1 47 76      30.43660340
  1 47 77      28.39361589
  1 47 78      26.35276189
  1 47 79      24.27710662
  1 47 80      22.17959256
  1 47 81      20.07019005
  1 48 81      18.78005326
  1 48 82      17.49060363
  1 48 83      15.77059399
  1 47 83      14.28936247
  1 47 84      12.40205402
  1 47 85      10.21942807
  1 47 86       8.74253720
  1 48 86       7.47354318
  1 48 87       5.43814996
  1 48 88       3.88012559
  1 47 88       2.66892753
END period  1

