BEGIN options
  SAVE_FLOWS
END options

BEGIN dimensions
  MAXBOUND  15
END dimensions

BEGIN period  1
  1 87 46     120.00000000
  1 87 47     120.00000000
  1 88 48     120.00000000
  1 89 49     120.00000000
  1 90 50     120.00000000
  1 91 51     120.00000000
  1 92 52     120.00000000
  1 93 53     120.00000000
  1 93 54     120.00000000
  1 93 56     120.00000000
  1 93 57     120.00000000
  1 93 58     120.00000000
  1 94 59     120.00000000
  1 95 59     120.00000000
  1 96 59     120.00000000
END period  1

