BEGIN options
  SAVE_FLOWS
END options

BEGIN dimensions
  MAXBOUND  19
END dimensions

BEGIN period  1
  1 114 32     120.00000000
  1 115 33     120.00000000
  1 116 34     120.00000000
  1 116 35     120.00000000
  1 117 36     120.00000000
  1 118 36     120.00000000
  1 119 37     120.00000000
  1 120 37     120.00000000
  1 120 38     120.00000000
  1 121 39     120.00000000
  1 121 41     120.00000000
  1 121 42     120.00000000
  1 121 43     120.00000000
  1 122 39     120.00000000
  1 122 40     120.00000000
  1 122 44     120.00000000
  1 123 45     120.00000000
  1 124 45     120.00000000
  1 125 45     120.00000000
END period  1

