BEGIN options
END options

BEGIN dimensions
  MAXBOUND  106
END dimensions

BEGIN period  1
  1 93 125      -0.00648782
  1 109 127      -0.04646436
  1 124 137      -0.04431761
  1 101 104      -0.00551433
  1 103 101      -0.00419521
  1 75 84      -0.00813356
  1 120 97      -0.00371639
  1 64 112      -0.00910705
  1 64 112      -0.01102549
  1 88 20      -0.01124112
  1 118 104      -0.03346969
  1 116 105      -0.00473110
  1 80 115      -0.02396626
  1 80 116      -0.01406012
  1 73 132      -0.00750888
  1 72 133      -0.00246068
  1 79 139      -0.00616121
  1 73 137      -0.01513508
  1 79 130      -0.01472603
  1 79 134      -0.00749619
  1 90 87      -0.01078767
  1 56 118      -0.00771182
  1 97 117      -0.00495941
  1 74 57      -0.00334855
  1 107 124      -0.01416159
  1 108 120      -0.01440576
  1 108 119      -0.01087646
  1 106 122      -0.00876142
  1 105 113      -0.00896436
  1 52 87      -0.00636733
  1 110 70      -0.00740741
  1 81 28      -0.00991882
  1 84 28      -0.01359082
  1 103 132      -0.01250317
  1 106 132      -0.01511289
  1 41 140  -1.26839168E-04
  1 81 76      -0.02446728
  1 77 46      -0.01113648
  1 75 48      -0.06351788
  1 75 48      -0.02671550
  1 102 115      -0.00670028
  1 104 111      -0.01872780
  1 103 109      -0.01459919
  1 101 108      -0.01820459
  1 99 108      -0.01423770
  1 78 41      -0.00523212
  1 112 113  -5.64434297E-04
  1 76 94      -0.01619736
  1 74 105      -0.00989663
  1 70 102      -0.00919584
  1 81 105      -0.00489916
  1 59 91      -0.00315830
  1 76 73      -0.02978184
  1 72 76      -0.00895167
  1 76 68      -0.00722666
  1 64 107      -0.01864219
  1 94 95      -0.00491819
  1 97 82      -0.00528285
  1 56 98      -0.00726788
  1 57 96      -0.00193113
  1 51 96      -0.01621639
  1 43 104      -0.00228311
  1 83 128      -0.00547945
  1 83 127      -0.00537481
  1 87 116      -0.01092402
  1 35 110  -3.51978691E-04
  1 98 135      -0.01009323
  1 99 129      -0.03848935
  1 71 86      -0.02497146
  1 71 89      -0.00793379
  1 74 95      -0.01805873
  1 70 85      -0.00200406
  1 82 56      -0.09195840
  1 77 54      -0.01979959
  1 77 54      -0.03000698
  1 79 56      -0.00282217
  1 82 55      -0.01492580
  1 82 55      -0.02101408
  1 82 55      -0.04545599
  1 82 61      -0.00375444
  1 49 123      -0.00440132
  1 48 124      -0.01429795
  1 45 128      -0.01399670
  1 46 128      -0.00509576
  1 51 121      -0.02236175
  1 133 76      -0.00947806
  1 47 131      -0.01402841
  1 47 131      -0.00246385
  1 48 127      -0.01660008
  1 51 131      -0.00468037
  1 47 133      -0.01491946
  1 67 135      -0.00316147
  1 65 136      -0.00707763
  1 67 135      -0.00874873
  1 105 69      -0.00191527
  1 106 61      -0.01204021
  1 93 118      -0.00235921
  1 92 63      -0.01718037
  1 95 64      -0.02500951
  1 57 130      -0.00742643
  1 55 138      -0.00437278
  1 85 87      -0.01532851
  1 101 76      -0.00696030
  1 66 127      -0.00655441
  1 94 108      -0.00965880
  1 73 77      -0.00361809
END period  1

