BEGIN options
END options

BEGIN dimensions
  MAXBOUND  106
END dimensions

BEGIN period  1
  1 185 234      -0.00648782
  1 218 237      -0.04646436
  1 247 256      -0.04431761
  1 201 195      -0.00551433
  1 205 190      -0.00419521
  1 149 156      -0.00813356
  1 239 183      -0.00371639
  1 128 209      -0.00910705
  1 128 210      -0.01102549
  1 175 38      -0.01124112
  1 235 196      -0.03346969
  1 232 196      -0.00473110
  1 160 215      -0.02396626
  1 159 217      -0.01406012
  1 145 247      -0.00750888
  1 144 249      -0.00246068
  1 158 261      -0.00616121
  1 146 257      -0.01513508
  1 157 244      -0.01472603
  1 158 251      -0.00749619
  1 180 163      -0.01078767
  1 112 222      -0.00771182
  1 194 220      -0.00495941
  1 148 108      -0.00334855
  1 214 233      -0.01416159
  1 215 224      -0.01440576
  1 215 224      -0.01087646
  1 211 229      -0.00876142
  1 209 212      -0.00896436
  1 104 162      -0.00636733
  1 220 131      -0.00740741
  1 161 52      -0.00991882
  1 168 53      -0.01359082
  1 206 247      -0.01250317
  1 211 247      -0.01511289
  1 82 262  -1.26839168E-04
  1 162 142      -0.02446728
  1 154 86      -0.01113648
  1 149 90      -0.06351788
  1 149 90      -0.02671550
  1 204 215      -0.00670028
  1 207 207      -0.01872780
  1 205 205      -0.01459919
  1 202 202      -0.01820459
  1 197 202      -0.01423770
  1 155 76      -0.00523212
  1 223 212  -5.64434297E-04
  1 151 176      -0.01619736
  1 147 196      -0.00989663
  1 139 191      -0.00919584
  1 161 197      -0.00489916
  1 117 170      -0.00315830
  1 152 137      -0.02978184
  1 144 142      -0.00895167
  1 151 127      -0.00722666
  1 128 200      -0.01864219
  1 188 179      -0.00491819
  1 194 153      -0.00528285
  1 112 184      -0.00726788
  1 114 180      -0.00193113
  1 102 180      -0.01621639
  1 86 196      -0.00228311
  1 166 239      -0.00547945
  1 165 239      -0.00537481
  1 173 217      -0.01092402
  1 69 205  -3.51978691E-04
  1 196 254      -0.01009323
  1 197 242      -0.03848935
  1 141 161      -0.02497146
  1 141 166      -0.00793379
  1 147 178      -0.01805873
  1 139 160      -0.00200406
  1 164 105      -0.09195840
  1 154 101      -0.01979959
  1 154 101      -0.03000698
  1 157 105      -0.00282217
  1 163 104      -0.01492580
  1 163 104      -0.02101408
  1 163 104      -0.04545599
  1 164 113      -0.00375444
  1 98 230      -0.00440132
  1 95 232      -0.01429795
  1 90 240      -0.01399670
  1 91 240      -0.00509576
  1 102 227      -0.02236175
  1 266 141      -0.00947806
  1 94 246      -0.01402841
  1 94 246      -0.00246385
  1 95 239      -0.01660008
  1 101 246      -0.00468037
  1 93 249      -0.01491946
  1 134 252      -0.00316147
  1 130 254      -0.00707763
  1 133 254      -0.00874873
  1 209 129      -0.00191527
  1 211 114      -0.01204021
  1 185 221      -0.00235921
  1 183 117      -0.01718037
  1 190 119      -0.02500951
  1 114 243      -0.00742643
  1 110 258      -0.00437278
  1 170 163      -0.01532851
  1 202 143      -0.00696030
  1 131 238      -0.00655441
  1 188 202      -0.00965880
  1 145 144      -0.00361809
END period  1

