BEGIN options
END options

BEGIN dimensions
  MAXBOUND  406
END dimensions

BEGIN period  1
  1 138 212      -0.00913759
  1 111 222      -0.00433229
  1 134 191      -0.00120240
  1 133 193      -0.01802905
  1 108 177  -7.36681887E-04
  1 107 186      -0.01063921
  1 107 186      -0.01852448
  1 129 189      -0.01352007
  1 144 191      -0.00790589
  1 95 216      -0.00495412
  1 128 131      -0.00383454
  1 131 131      -0.01462427
  1 142 145      -0.02368861
  1 122 158      -0.02338258
  1 123 153  -8.87874176E-04
  1 125 139      -0.00760195
  1 129 94      -0.04297939
  1 136 101      -0.00362649
  1 129 68      -0.00353678
  1 130 67  -7.87037037E-05
  1 86 144      -0.00887373
  1 124 95      -0.00407300
  1 121 219      -0.00839365
  1 94 164      -0.01678393
  1 137 111  -9.69748858E-04
  1 179 136      -0.00856164
  1 69 188  -4.81988838E-04
  1 142 133  -5.40969051E-04
  1 128 108  -9.51293760E-05
  1 124 99  -1.14155251E-04
  1 144 103      -0.00129316
  1 196 173      -0.00879287
  1 165 215      -0.00235661
  1 154 208      -0.00948354
  1 165 215      -0.00945152
  1 175 222      -0.01234592
  1 165 215      -0.01003656
  1 165 215      -0.00911726
  1 165 215      -0.00450289
  1 172 164      -0.00279408
  1 145 192      -0.00665690
  1 155 197      -0.00289422
  1 157 158      -0.00620316
  1 150 144  -2.17846271E-05
  1 162 136      -0.01136771
  1 120 221      -0.00407788
  1 104 231      -0.00881837
  1 130 217      -0.01169032
  1 120 219      -0.00828057
  1 122 228      -0.01047974
  1 108 226      -0.01826113
  1 132 231      -0.00747121
  1 195 173      -0.00560458
  1 194 174      -0.00367526
  1 195 174      -0.01485769
  1 178 223  -8.56164384E-04
  1 176 217      -0.01079354
  1 165 215      -0.00625856
  1 173 207      -0.00134434
  1 175 222      -0.05300685
  1 153 164      -0.00407132
  1 174 188      -0.00789346
  1 164 180      -0.00729154
  1 168 179      -0.00733206
  1 171 182      -0.00828494
  1 173 184      -0.00909358
  1 162 195      -0.00438981
  1 179 199      -0.00368760
  1 156 179      -0.01084928
  1 169 164  -9.30365297E-04
  1 170 191      -0.01212129
  1 172 167      -0.00822089
  1 215 136      -0.02064181
  1 199 162      -0.00379665
  1 222 126      -0.00790512
  1 209 150  -6.31151700E-04
  1 144 144      -0.01117596
  1 175 146  -7.82090309E-04
  1 168 127      -0.00677010
  1 172 110      -0.01167057
  1 152 104      -0.01803574
  1 183 117      -0.01236682
  1 174 115      -0.00100285
  1 158 107      -0.01822045
  1 156 109      -0.00106215
  1 146 35      -0.00924978
  1 118 231  -2.45846017E-04
  1 138 213      -0.00779344
  1 110 211      -0.00245798
  1 119 188  -6.34195840E-04
  1 140 199  -9.51293760E-06
  1 113 178  -1.36352106E-04
  1 134 175      -0.01218246
  1 116 170      -0.00358688
  1 123 174  -3.67833587E-06
  1 112 168      -0.00565088
  1 135 186      -0.00133942
  1 88 211      -0.00422130
  1 95 222      -0.00477559
  1 80 206      -0.00433143
  1 95 217      -0.00495294
  1 88 210      -0.01609821
  1 84 218      -0.00599505
  1 80 216      -0.00937288
  1 76 213      -0.01470605
  1 98 175      -0.01688559
  1 94 197      -0.00794930
  1 57 183      -0.00688118
  1 93 176  -3.80517504E-05
  1 62 195  -1.42694064E-04
  1 85 201      -0.00452353
  1 69 177  -2.16197362E-04
  1 85 160      -0.00150520
  1 116 142      -0.00905410
  1 126 156      -0.00901164
  1 131 158  -1.74530695E-04
  1 140 141      -0.00116920
  1 118 143      -0.01088401
  1 123 158  -4.27416286E-04
  1 120 126      -0.01101376
  1 118 148      -0.01008333
  1 132 89      -0.01522726
  1 129 91      -0.02730654
  1 129 91      -0.00204871
  1 127 121  -5.06659056E-04
  1 141 104  -3.80517504E-04
  1 126 113      -0.00893690
  1 137 93      -0.11600828
  1 125 64  -1.39681634E-04
  1 129 73      -0.06838499
  1 129 73      -0.02161574
  1 126 82      -0.01389374
  1 142 61  -1.61244292E-04
  1 95 160      -0.00894882
  1 98 151      -0.00320329
  1 82 152  -3.32952816E-04
  1 85 160      -0.00870687
  1 196 176  -3.54832572E-04
  1 179 199      -0.01708222
  1 158 107      -0.01972707
  1 100 219      -0.00385813
  1 118 231  -2.05701421E-04
  1 107 178      -0.00271100
  1 112 168      -0.00565088
  1 78 221      -0.00853244
  1 80 206      -0.01112833
  1 82 204      -0.00529097
  1 81 216      -0.00443610
  1 82 204      -0.00511162
  1 86 176      -0.00256355
  1 85 201      -0.00641521
  1 77 176  -7.59069001E-04
  1 131 89      -0.02256938
  1 52 235      -0.00972501
  1 186 217  -2.21968544E-04
  1 164 165  -3.98592085E-04
  1 169 172  -3.80517504E-04
  1 169 173  -2.37823440E-05
  1 128 136  -2.04845256E-04
  1 119 215      -0.00158549
  1 150 145  -2.16894977E-04
  1 78 189  -1.90258752E-04
  1 95 201      -0.00253678
  1 104 205  -6.65905632E-04
  1 145 142  -8.68848300E-05
  1 181 223  -2.02942669E-04
  1 174 205  -3.55149670E-04
  1 137 65  -4.66133942E-04
  1 139 43  -1.85660832E-04
  1 136 76  -5.07356672E-04
  1 128 87  -1.80745814E-04
  1 129 62  -2.85388128E-04
  1 131 69  -3.10755961E-04
  1 126 70  -6.34195840E-04
  1 132 69  -5.07356672E-04
  1 128 64  -1.90258752E-04
  1 134 68  -4.42351598E-04
  1 132 67  -1.98503298E-04
  1 130 71  -5.67605277E-04
  1 130 71  -1.10984272E-04
  1 130 65  -2.12455606E-04
  1 188 189  -1.38381532E-04
  1 185 207  -1.26839168E-04
  1 185 198  -2.91254439E-04
  1 113 173  -1.26839168E-04
  1 95 180      -0.00190259
  1 97 187  -7.61035008E-04
  1 100 188  -4.75646880E-05
  1 98 191  -6.34195840E-04
  1 93 173  -1.01471334E-04
  1 95 177  -6.34195840E-04
  1 98 186  -9.51293760E-05
  1 100 190  -1.77574835E-04
  1 90 175  -6.18340944E-04
  1 81 151  -4.75646880E-04
  1 138 96  -3.80517504E-04
  1 141 94  -3.80517504E-04
  1 142 109  -3.80517504E-04
  1 136 102  -7.13470320E-05
  1 140 103  -3.80517504E-04
  1 131 99  -3.80517504E-04
  1 136 106  -3.80517504E-04
  1 137 105  -4.92770167E-04
  1 191 192      -0.00846651
  1 79 210  -1.90258752E-04
  1 79 209  -2.85388128E-04
  1 76 211  -2.66362253E-04
  1 77 203  -1.14155251E-04
  1 82 199  -1.90258752E-04
  1 85 204  -7.22983257E-04
  1 81 214  -1.26839168E-04
  1 83 212  -2.53678336E-05
  1 80 211  -6.34195840E-04
  1 60 195  -1.90258752E-04
  1 59 195  -2.37823440E-04
  1 147 106  -3.55149670E-04
  1 92 219  -1.20497210E-04
  1 93 229  -1.52207002E-04
  1 92 216  -5.83460173E-04
  1 92 220      -0.00126839
  1 92 221      -0.00126839
  1 91 220  -2.53678336E-04
  1 100 211  -9.51293760E-04
  1 100 210  -3.80517504E-04
  1 104 211  -4.56621005E-04
  1 99 214  -5.77118214E-04
  1 100 215  -3.17097920E-04
  1 100 207  -5.39066464E-04
  1 143 131  -2.02942669E-04
  1 113 211  -5.07356672E-04
  1 114 207  -1.52207002E-04
  1 113 204  -5.07356672E-04
  1 113 202  -6.34195840E-04
  1 111 200  -2.66362253E-04
  1 114 199  -1.26839168E-04
  1 112 200  -1.01471334E-04
  1 113 213  -1.90258752E-04
  1 115 202  -1.01471334E-04
  1 114 210  -7.48351091E-05
  1 114 203      -0.00122400
  1 105 211  -8.62506342E-04
  1 203 172  -5.70776256E-04
  1 123 129  -1.58548960E-04
  1 52 184  -1.90258752E-04
  1 133 91  -2.06113648E-05
  1 108 196  -5.07356672E-04
  1 105 195  -1.58548960E-04
  1 143 84      -0.00153355
  1 148 131  -3.80517504E-04
  1 148 95  -4.28082192E-04
  1 105 192  -1.71232877E-04
  1 180 218      -0.00232024
  1 133 55      -0.00108457
  1 138 80  -6.34830036E-04
  1 132 71  -2.85388128E-04
  1 129 71  -1.18911720E-04
  1 129 72  -4.71841705E-04
  1 115 178  -2.85388128E-04
  1 120 187  -8.16812532E-04
  1 159 147      -0.00107211
  1 121 162  -2.85388128E-04
  1 142 113      -0.00761035
  1 137 108  -1.90258752E-04
  1 60 194  -2.28310502E-04
  1 144 128  -9.51293760E-04
  1 163 144  -6.67808219E-04
  1 112 205  -5.07356672E-04
  1 113 207  -1.90258752E-04
  1 113 207  -1.21765601E-04
  1 105 207  -7.29325216E-04
  1 46 198      -0.00194857
  1 141 96  -5.70776256E-04
  1 151 132  -8.87874176E-05
  1 85 157  -5.89548453E-04
  1 82 148  -5.70776256E-04
  1 140 110  -6.72247590E-04
  1 75 213      -0.00751522
  1 78 203  -5.39066464E-04
  1 74 191  -5.70776256E-04
  1 78 219  -1.26839168E-04
  1 83 219  -4.43937088E-05
  1 85 220  -6.34195840E-04
  1 81 212  -2.70167428E-04
  1 143 212  -3.64662608E-04
  1 63 191  -4.69304921E-05
  1 59 187  -1.42694064E-04
  1 61 181  -2.98706240E-04
  1 66 179  -6.34195840E-05
  1 154 194      -0.00232024
  1 144 119      -0.00133181
  1 144 122      -0.00123668
  1 157 105  -1.64890918E-04
  1 148 123      -0.00237823
  1 146 101  -1.61085743E-04
  1 152 111  -3.08282598E-04
  1 93 224  -3.75443937E-04
  1 92 219  -6.34195840E-04
  1 93 219  -3.17097920E-04
  1 143 129      -0.00132610
  1 147 123  -3.74175545E-04
  1 108 206  -7.92744800E-04
  1 111 208  -9.51293760E-05
  1 107 207  -4.85159817E-04
  1 110 211  -7.86402841E-05
  1 112 206  -3.17097920E-04
  1 111 208      -0.00221969
  1 112 214  -4.75646880E-05
  1 111 208      -0.00143962
  1 131 94      -0.00406028
  1 110 213      -0.00294803
  1 158 210  -2.85388128E-04
  1 182 211      -0.01716086
  1 181 225  -6.97615424E-05
  1 171 220  -8.87874176E-04
  1 127 137  -9.86174531E-05
  1 116 186  -1.90258752E-04
  1 117 196      -0.00106317
  1 110 200  -2.09284627E-04
  1 114 187  -1.57978184E-04
  1 147 40      -0.00532725
  1 147 35      -0.00102645
  1 207 147  -3.91742770E-04
  1 117 214      -0.00190259
  1 148 143  -6.34195840E-04
  1 143 152  -5.70776256E-04
  1 94 187      -0.00155327
  1 101 205  -6.21511923E-04
  1 95 193  -2.02942669E-04
  1 176 204      -0.02072073
  1 178 207      -0.00283584
  1 180 223  -1.52207002E-04
  1 177 227  -6.59563673E-04
  1 175 213  -9.51293760E-05
  1 180 211  -1.26839168E-04
  1 172 203  -3.17097920E-04
  1 171 209  -6.49670218E-04
  1 82 146      -0.00383153
  1 145 44  -4.94672755E-04
  1 136 67  -2.91730086E-04
  1 132 59  -9.10705226E-04
  1 176 218  -8.37138508E-04
  1 171 223  -2.21968544E-04
  1 172 222  -3.17097920E-04
  1 175 220  -1.26839168E-04
  1 208 162      -0.00351195
  1 185 207  -2.28310502E-04
  1 184 208  -1.01471334E-04
  1 184 195  -5.95509893E-05
  1 192 211  -7.51490360E-04
  1 185 197  -6.78652968E-04
  1 191 196  -6.34195840E-04
  1 123 181  -2.56532217E-04
  1 120 192  -3.71955860E-04
  1 114 174  -3.80517504E-04
  1 108 176  -1.47989599E-04
  1 131 158  -6.03754439E-05
  1 127 123  -3.17097920E-04
  1 129 108  -5.07356672E-05
  1 99 188  -6.34195840E-04
  1 99 180  -3.17097920E-04
  1 95 185  -3.17097920E-04
  1 91 174  -3.75443937E-04
  1 97 190      -0.00179160
  1 100 181      -0.00114472
  1 93 176      -0.00126839
  1 100 190      -0.00126839
  1 98 183  -3.17097920E-04
  1 91 175  -4.75646880E-04
  1 153 165  -7.92744800E-06
  1 199 209      -0.00285388
  1 115 226      -0.00190259
  1 111 228  -8.33967529E-04
  1 111 228  -3.99543379E-04
  1 111 228  -9.51293760E-04
  1 111 223  -3.85020294E-04
  1 136 94  -1.71232877E-04
  1 138 93      -0.00133181
  1 135 98  -2.37823440E-04
  1 141 106  -2.15626585E-04
  1 135 108  -6.75418569E-05
  1 142 113      -0.00228311
  1 144 98  -3.80517504E-04
  1 144 99  -3.80517504E-04
  1 140 103  -3.80517504E-04
  1 109 212      -0.00142694
  1 107 207  -3.17097920E-04
  1 105 205  -1.90258752E-04
  1 112 215  -5.07356672E-04
  1 115 209  -9.51293760E-05
  1 115 211  -8.56164384E-04
  1 112 202  -6.34195840E-05
  1 178 149  -7.51204972E-05
  1 125 125  -6.34195840E-05
  1 183 117      -0.01119482
  1 52 235      -0.01019980
  1 177 148  -2.99784373E-04
  1 135 93  -2.18797565E-04
  1 58 183  -1.54268138E-04
  1 191 185      -0.01106298
  1 95 213  -9.51293760E-04
  1 95 212  -4.75646880E-04
  1 146 62  -5.70776256E-04
  1 199 223  -2.94457128E-04
  1 114 206  -3.99543379E-04
  1 83 156  -5.57141045E-05
  1 187 223  -3.55149670E-04
END period  1

