BEGIN options
END options

BEGIN dimensions
  MAXBOUND  106
END dimensions

BEGIN period  1
  1 124 156      -0.00648782
  1 146 158      -0.04646436
  1 165 171      -0.04431761
  1 134 130      -0.00551433
  1 137 127      -0.00419521
  1 100 104      -0.00813356
  1 159 122      -0.00371639
  1 86 140      -0.00910705
  1 86 140      -0.01102549
  1 117 25      -0.01124112
  1 157 131      -0.03346969
  1 155 131      -0.00473110
  1 107 144      -0.02396626
  1 106 145      -0.01406012
  1 97 165      -0.00750888
  1 96 166      -0.00246068
  1 106 174      -0.00616121
  1 98 172      -0.01513508
  1 105 163      -0.01472603
  1 106 167      -0.00749619
  1 120 109      -0.01078767
  1 75 148      -0.00771182
  1 130 147      -0.00495941
  1 99 72      -0.00334855
  1 143 155      -0.01416159
  1 143 149      -0.01440576
  1 143 149      -0.01087646
  1 141 153      -0.00876142
  1 139 141      -0.00896436
  1 69 108      -0.00636733
  1 147 87      -0.00740741
  1 108 35      -0.00991882
  1 112 35      -0.01359082
  1 137 165      -0.01250317
  1 141 165      -0.01511289
  1 55 175  -1.26839168E-04
  1 108 95      -0.02446728
  1 103 57      -0.01113648
  1 99 60      -0.06351788
  1 99 60      -0.02671550
  1 136 144      -0.00670028
  1 138 138      -0.01872780
  1 137 137      -0.01459919
  1 135 135      -0.01820459
  1 131 135      -0.01423770
  1 103 51      -0.00523212
  1 149 141  -5.64434297E-04
  1 101 117      -0.01619736
  1 98 131      -0.00989663
  1 93 128      -0.00919584
  1 107 131      -0.00489916
  1 78 114      -0.00315830
  1 102 91      -0.02978184
  1 96 95      -0.00895167
  1 101 85      -0.00722666
  1 86 134      -0.01864219
  1 125 119      -0.00491819
  1 129 102      -0.00528285
  1 75 123      -0.00726788
  1 76 120      -0.00193113
  1 68 120      -0.01621639
  1 58 131      -0.00228311
  1 111 160      -0.00547945
  1 110 159      -0.00537481
  1 116 145      -0.01092402
  1 46 137  -3.51978691E-04
  1 131 169      -0.01009323
  1 132 161      -0.03848935
  1 94 108      -0.02497146
  1 94 111      -0.00793379
  1 98 119      -0.01805873
  1 93 107      -0.00200406
  1 110 70      -0.09195840
  1 103 68      -0.01979959
  1 103 68      -0.03000698
  1 105 70      -0.00282217
  1 109 69      -0.01492580
  1 109 69      -0.02101408
  1 109 69      -0.04545599
  1 109 76      -0.00375444
  1 65 153      -0.00440132
  1 64 155      -0.01429795
  1 60 160      -0.01399670
  1 61 160      -0.00509576
  1 68 151      -0.02236175
  1 178 94      -0.00947806
  1 63 164      -0.01402841
  1 63 164      -0.00246385
  1 63 159      -0.01660008
  1 67 164      -0.00468037
  1 62 166      -0.01491946
  1 89 168      -0.00316147
  1 87 170      -0.00707763
  1 89 169      -0.00874873
  1 139 86      -0.00191527
  1 141 76      -0.01204021
  1 124 148      -0.00235921
  1 122 78      -0.01718037
  1 127 80      -0.02500951
  1 76 162      -0.00742643
  1 73 172      -0.00437278
  1 114 109      -0.01532851
  1 135 95      -0.00696030
  1 88 159      -0.00655441
  1 125 135      -0.00965880
  1 97 96      -0.00361809
END period  1

