BEGIN options
END options

BEGIN dimensions
  MAXBOUND  406
END dimensions

BEGIN period  1
  1 109 115      -0.00913759
  1 90 122      -0.00433229
  1 106 102      -0.00120240
  1 106 103      -0.01802905
  1 88 94  -7.36681887E-04
  1 87 99      -0.01063921
  1 87 99      -0.01852448
  1 103 101      -0.01352007
  1 114 102      -0.00790589
  1 78 118      -0.00495412
  1 103 65      -0.00383454
  1 105 66      -0.01462427
  1 113 74      -0.02368861
  1 98 82      -0.02338258
  1 99 79  -8.87874176E-04
  1 100 70      -0.00760195
  1 103 43      -0.04297939
  1 108 47      -0.00362649
  1 103 27      -0.00353678
  1 104 26  -7.87037037E-05
  1 72 73      -0.00887373
  1 99 44      -0.00407300
  1 97 120      -0.00839365
  1 77 86      -0.01678393
  1 109 53  -9.69748858E-04
  1 140 68      -0.00856164
  1 59 100  -4.81988838E-04
  1 113 67  -5.40969051E-04
  1 102 51  -9.51293760E-05
  1 99 46  -1.14155251E-04
  1 114 48      -0.00129316
  1 152 91      -0.00879287
  1 129 117      -0.00235661
  1 122 113      -0.00948354
  1 129 117      -0.00945152
  1 137 121      -0.01234592
  1 129 117      -0.01003656
  1 129 117      -0.00911726
  1 130 117      -0.00450289
  1 134 86      -0.00279408
  1 114 103      -0.00665690
  1 122 106      -0.00289422
  1 123 82      -0.00620316
  1 118 74  -2.17846271E-05
  1 127 69      -0.01136771
  1 96 121      -0.00407788
  1 85 127      -0.00881837
  1 104 118      -0.01169032
  1 96 119      -0.00828057
  1 98 125      -0.01047974
  1 88 124      -0.01826113
  1 105 127      -0.00747121
  1 152 91      -0.00560458
  1 150 92      -0.00367526
  1 152 92      -0.01485769
  1 139 122  -8.56164384E-04
  1 138 118      -0.01079354
  1 129 117      -0.00625856
  1 135 112      -0.00134434
  1 137 121      -0.05300685
  1 121 86      -0.00407132
  1 136 100      -0.00789346
  1 129 95      -0.00729154
  1 132 95      -0.00733206
  1 134 97      -0.00828494
  1 135 98      -0.00909358
  1 127 105      -0.00438981
  1 140 107      -0.00368760
  1 123 95      -0.01084928
  1 132 86  -9.30365297E-04
  1 133 102      -0.01212129
  1 134 88      -0.00822089
  1 166 69      -0.02064181
  1 155 85      -0.00379665
  1 171 62      -0.00790512
  1 162 77  -6.31151700E-04
  1 114 73      -0.01117596
  1 137 75  -7.82090309E-04
  1 132 63      -0.00677010
  1 135 53      -0.01167057
  1 120 49      -0.01803574
  1 143 57      -0.01236682
  1 136 55      -0.00100285
  1 124 51      -0.01822045
  1 123 52      -0.00106215
  1 116 7      -0.00924978
  1 95 127  -2.45846017E-04
  1 110 116      -0.00779344
  1 89 115      -0.00245798
  1 95 101  -6.34195840E-04
  1 111 107  -9.51293760E-06
  1 91 95  -1.36352106E-04
  1 107 92      -0.01218246
  1 94 89      -0.00358688
  1 99 92  -3.67833587E-06
  1 91 88      -0.00565088
  1 108 99      -0.00133942
  1 73 115      -0.00422130
  1 78 121      -0.00477559
  1 67 111      -0.00433143
  1 78 118      -0.00495294
  1 73 114      -0.01609821
  1 70 119      -0.00599505
  1 67 117      -0.00937288
  1 64 116      -0.01470605
  1 80 92      -0.01688559
  1 77 106      -0.00794930
  1 50 97      -0.00688118
  1 76 93  -3.80517504E-05
  1 54 105  -1.42694064E-04
  1 71 109      -0.00452353
  1 59 94  -2.16197362E-04
  1 70 84      -0.00150520
  1 93 72      -0.00905410
  1 101 81      -0.00901164
  1 105 82  -1.74530695E-04
  1 111 72      -0.00116920
  1 95 73      -0.01088401
  1 99 82  -4.27416286E-04
  1 96 63      -0.01101376
  1 95 76      -0.01008333
  1 105 40      -0.01522726
  1 103 41      -0.02730654
  1 103 41      -0.00204871
  1 102 60  -5.06659056E-04
  1 112 49  -3.80517504E-04
  1 101 55      -0.00893690
  1 109 42      -0.11600828
  1 100 25  -1.39681634E-04
  1 103 30      -0.06838499
  1 103 30      -0.02161574
  1 101 35      -0.01389374
  1 113 23  -1.61244292E-04
  1 78 83      -0.00894882
  1 80 78      -0.00320329
  1 69 78  -3.32952816E-04
  1 70 83      -0.00870687
  1 152 93  -3.54832572E-04
  1 140 107      -0.01708222
  1 124 51      -0.01972707
  1 82 120      -0.00385813
  1 95 127  -2.05701421E-04
  1 87 94      -0.00271100
  1 91 88      -0.00565088
  1 66 121      -0.00853244
  1 67 111      -0.01112833
  1 68 110      -0.00529097
  1 68 118      -0.00443610
  1 68 110      -0.00511162
  1 72 93      -0.00256355
  1 70 109      -0.00641521
  1 65 93  -7.59069001E-04
  1 105 40      -0.02256938
  1 46 129      -0.00972501
  1 145 118  -2.21968544E-04
  1 129 86  -3.98592085E-04
  1 132 91  -3.80517504E-04
  1 132 92  -2.37823440E-05
  1 102 69  -2.04845256E-04
  1 95 117      -0.00158549
  1 118 74  -2.16894977E-04
  1 65 101  -1.90258752E-04
  1 78 108      -0.00253678
  1 85 111  -6.65905632E-04
  1 115 72  -8.68848300E-05
  1 141 122  -2.02942669E-04
  1 136 111  -3.55149670E-04
  1 109 25  -4.66133942E-04
  1 110 12  -1.85660832E-04
  1 108 32  -5.07356672E-04
  1 102 38  -1.80745814E-04
  1 103 23  -2.85388128E-04
  1 104 27  -3.10755961E-04
  1 101 28  -6.34195840E-04
  1 105 27  -5.07356672E-04
  1 103 25  -1.90258752E-04
  1 107 27  -4.42351598E-04
  1 105 26  -1.98503298E-04
  1 103 29  -5.67605277E-04
  1 104 29  -1.10984272E-04
  1 104 25  -2.12455606E-04
  1 146 101  -1.38381532E-04
  1 144 112  -1.26839168E-04
  1 144 106  -2.91254439E-04
  1 91 91  -1.26839168E-04
  1 78 96      -0.00190259
  1 80 100  -7.61035008E-04
  1 82 100  -4.75646880E-05
  1 80 102  -6.34195840E-04
  1 76 91  -1.01471334E-04
  1 78 94  -6.34195840E-04
  1 81 99  -9.51293760E-05
  1 81 102  -1.77574835E-04
  1 75 92  -6.18340944E-04
  1 68 78  -4.75646880E-04
  1 109 44  -3.80517504E-04
  1 112 43  -3.80517504E-04
  1 113 52  -3.80517504E-04
  1 108 47  -7.13470320E-05
  1 111 48  -3.80517504E-04
  1 105 46  -3.80517504E-04
  1 108 50  -3.80517504E-04
  1 109 50  -4.92770167E-04
  1 148 103      -0.00846651
  1 66 114  -1.90258752E-04
  1 67 113  -2.85388128E-04
  1 64 115  -2.66362253E-04
  1 65 110  -1.14155251E-04
  1 68 107  -1.90258752E-04
  1 71 110  -7.22983257E-04
  1 68 116  -1.26839168E-04
  1 69 115  -2.53678336E-05
  1 67 114  -6.34195840E-04
  1 52 105  -1.90258752E-04
  1 52 105  -2.37823440E-04
  1 116 50  -3.55149670E-04
  1 76 119  -1.20497210E-04
  1 77 125  -1.52207002E-04
  1 76 118  -5.83460173E-04
  1 76 120      -0.00126839
  1 76 121      -0.00126839
  1 75 120  -2.53678336E-04
  1 81 115  -9.51293760E-04
  1 82 114  -3.80517504E-04
  1 85 115  -4.56621005E-04
  1 81 117  -5.77118214E-04
  1 82 117  -3.17097920E-04
  1 82 112  -5.39066464E-04
  1 113 65  -2.02942669E-04
  1 91 114  -5.07356672E-04
  1 92 112  -1.52207002E-04
  1 92 110  -5.07356672E-04
  1 92 109  -6.34195840E-04
  1 90 108  -2.66362253E-04
  1 92 107  -1.26839168E-04
  1 91 108  -1.01471334E-04
  1 91 116  -1.90258752E-04
  1 93 109  -1.01471334E-04
  1 92 114  -7.48351091E-05
  1 92 109      -0.00122400
  1 85 114  -8.62506342E-04
  1 157 91  -5.70776256E-04
  1 98 64  -1.58548960E-04
  1 47 98  -1.90258752E-04
  1 106 41  -2.06113648E-05
  1 87 106  -5.07356672E-04
  1 85 105  -1.58548960E-04
  1 114 37      -0.00153355
  1 117 65  -3.80517504E-04
  1 117 44  -4.28082192E-04
  1 85 103  -1.71232877E-04
  1 141 119      -0.00232024
  1 106 19      -0.00108457
  1 110 34  -6.34830036E-04
  1 105 29  -2.85388128E-04
  1 103 29  -1.18911720E-04
  1 103 29  -4.71841705E-04
  1 93 94  -2.85388128E-04
  1 97 100  -8.16812532E-04
  1 125 75      -0.00107211
  1 97 84  -2.85388128E-04
  1 113 54      -0.00761035
  1 109 51  -1.90258752E-04
  1 52 104  -2.28310502E-04
  1 114 64  -9.51293760E-04
  1 128 73  -6.67808219E-04
  1 91 111  -5.07356672E-04
  1 91 112  -1.90258752E-04
  1 91 112  -1.21765601E-04
  1 86 112  -7.29325216E-04
  1 42 106      -0.00194857
  1 112 44  -5.70776256E-04
  1 119 66  -8.87874176E-05
  1 71 81  -5.89548453E-04
  1 69 76  -5.70776256E-04
  1 111 53  -6.72247590E-04
  1 64 116      -0.00751522
  1 66 110  -5.39066464E-04
  1 62 102  -5.70776256E-04
  1 66 119  -1.26839168E-04
  1 70 120  -4.43937088E-05
  1 70 120  -6.34195840E-04
  1 68 115  -2.70167428E-04
  1 113 115  -3.64662608E-04
  1 55 102  -4.69304921E-05
  1 52 100  -1.42694064E-04
  1 53 96  -2.98706240E-04
  1 57 95  -6.34195840E-05
  1 122 104      -0.00232024
  1 114 58      -0.00133181
  1 114 60      -0.00123668
  1 123 50  -1.64890918E-04
  1 117 61      -0.00237823
  1 116 47  -1.61085743E-04
  1 120 53  -3.08282598E-04
  1 77 123  -3.75443937E-04
  1 76 119  -6.34195840E-04
  1 77 120  -3.17097920E-04
  1 114 65      -0.00132610
  1 117 61  -3.74175545E-04
  1 88 112  -7.92744800E-04
  1 90 113  -9.51293760E-05
  1 87 112  -4.85159817E-04
  1 89 115  -7.86402841E-05
  1 91 111  -3.17097920E-04
  1 90 113      -0.00221969
  1 91 117  -4.75646880E-05
  1 90 113      -0.00143962
  1 104 43      -0.00406028
  1 89 116      -0.00294803
  1 125 114  -2.85388128E-04
  1 142 114      -0.01716086
  1 141 123  -6.97615424E-05
  1 134 120  -8.87874176E-04
  1 102 69  -9.86174531E-05
  1 94 99  -1.90258752E-04
  1 94 105      -0.00106317
  1 89 108  -2.09284627E-04
  1 92 100  -1.57978184E-04
  1 116 10      -0.00532725
  1 116 7      -0.00102645
  1 160 75  -3.91742770E-04
  1 95 117      -0.00190259
  1 117 73  -6.34195840E-04
  1 113 78  -5.70776256E-04
  1 77 100      -0.00155327
  1 82 111  -6.21511923E-04
  1 78 103  -2.02942669E-04
  1 138 110      -0.02072073
  1 139 112      -0.00283584
  1 141 122  -1.52207002E-04
  1 138 124  -6.59563673E-04
  1 137 116  -9.51293760E-05
  1 140 115  -1.26839168E-04
  1 135 110  -3.17097920E-04
  1 134 113  -6.49670218E-04
  1 69 75      -0.00383153
  1 115 12  -4.94672755E-04
  1 109 26  -2.91730086E-04
  1 105 21  -9.10705226E-04
  1 137 119  -8.37138508E-04
  1 134 122  -2.21968544E-04
  1 135 122  -3.17097920E-04
  1 137 120  -1.26839168E-04
  1 161 85      -0.00351195
  1 144 112  -2.28310502E-04
  1 144 113  -1.01471334E-04
  1 143 105  -5.95509893E-05
  1 149 114  -7.51490360E-04
  1 144 106  -6.78652968E-04
  1 148 106  -6.34195840E-04
  1 99 96  -2.56532217E-04
  1 96 103  -3.71955860E-04
  1 92 92  -3.80517504E-04
  1 87 93  -1.47989599E-04
  1 105 82  -6.03754439E-05
  1 102 61  -3.17097920E-04
  1 103 52  -5.07356672E-05
  1 81 100  -6.34195840E-04
  1 81 96  -3.17097920E-04
  1 78 99  -3.17097920E-04
  1 75 92  -3.75443937E-04
  1 79 102      -0.00179160
  1 82 96      -0.00114472
  1 77 93      -0.00126839
  1 82 102      -0.00126839
  1 80 97  -3.17097920E-04
  1 75 93  -4.75646880E-04
  1 120 86  -7.92744800E-06
  1 154 114      -0.00285388
  1 93 124      -0.00190259
  1 90 125  -8.33967529E-04
  1 90 125  -3.99543379E-04
  1 90 125  -9.51293760E-04
  1 90 122  -3.85020294E-04
  1 108 43  -1.71232877E-04
  1 110 42      -0.00133181
  1 107 46  -2.37823440E-04
  1 112 50  -2.15626585E-04
  1 107 52  -6.75418569E-05
  1 112 54      -0.00228311
  1 114 46  -3.80517504E-04
  1 114 46  -3.80517504E-04
  1 111 48  -3.80517504E-04
  1 89 115      -0.00142694
  1 87 112  -3.17097920E-04
  1 86 111  -1.90258752E-04
  1 90 117  -5.07356672E-04
  1 93 113  -9.51293760E-05
  1 93 114  -8.56164384E-04
  1 91 109  -6.34195840E-05
  1 139 77  -7.51204972E-05
  1 100 62  -6.34195840E-05
  1 143 57      -0.01119482
  1 46 129      -0.01019980
  1 138 76  -2.99784373E-04
  1 107 42  -2.18797565E-04
  1 51 97  -1.54268138E-04
  1 149 99      -0.01106298
  1 78 116  -9.51293760E-04
  1 78 115  -4.75646880E-04
  1 116 23  -5.70776256E-04
  1 155 122  -2.94457128E-04
  1 92 112  -3.99543379E-04
  1 69 81  -5.57141045E-05
  1 145 122  -3.55149670E-04
END period  1

