BEGIN options
END options

BEGIN dimensions
  MAXBOUND  406
END dimensions

BEGIN period  1
  1 83 127      -0.00913759
  1 67 134      -0.00433229
  1 80 115      -0.00120240
  1 80 116      -0.01802905
  1 65 106  -7.36681887E-04
  1 64 112      -0.01063921
  1 64 112      -0.01852448
  1 77 113      -0.01352007
  1 86 115      -0.00790589
  1 57 130      -0.00495412
  1 77 79      -0.00383454
  1 79 79      -0.01462427
  1 85 87      -0.02368861
  1 74 95      -0.02338258
  1 74 92  -8.87874176E-04
  1 75 83      -0.00760195
  1 78 56      -0.04297939
  1 82 61      -0.00362649
  1 77 41      -0.00353678
  1 78 40  -7.87037037E-05
  1 52 87      -0.00887373
  1 74 57      -0.00407300
  1 73 132      -0.00839365
  1 56 98      -0.01678393
  1 83 67  -9.69748858E-04
  1 107 82      -0.00856164
  1 41 113  -4.81988838E-04
  1 85 80  -5.40969051E-04
  1 77 65  -9.51293760E-05
  1 75 59  -1.14155251E-04
  1 86 62      -0.00129316
  1 118 104      -0.00879287
  1 99 129      -0.00235661
  1 93 125      -0.00948354
  1 99 129      -0.00945152
  1 105 133      -0.01234592
  1 99 129      -0.01003656
  1 99 129      -0.00911726
  1 99 129      -0.00450289
  1 103 99      -0.00279408
  1 87 116      -0.00665690
  1 93 118      -0.00289422
  1 94 95      -0.00620316
  1 90 87  -2.17846271E-05
  1 97 82      -0.01136771
  1 72 133      -0.00407788
  1 63 139      -0.00881837
  1 78 130      -0.01169032
  1 72 132      -0.00828057
  1 73 137      -0.01047974
  1 65 136      -0.01826113
  1 79 139      -0.00747121
  1 117 104      -0.00560458
  1 116 105      -0.00367526
  1 117 104      -0.01485769
  1 107 134  -8.56164384E-04
  1 106 130      -0.01079354
  1 99 129      -0.00625856
  1 104 125      -0.00134434
  1 105 133      -0.05300685
  1 92 99      -0.00407132
  1 105 113      -0.00789346
  1 99 108      -0.00729154
  1 101 108      -0.00733206
  1 103 109      -0.00828494
  1 104 111      -0.00909358
  1 97 117      -0.00438981
  1 108 120      -0.00368760
  1 94 108      -0.01084928
  1 102 99  -9.30365297E-04
  1 102 115      -0.01212129
  1 103 100      -0.00822089
  1 129 82      -0.02064181
  1 120 97      -0.00379665
  1 133 76      -0.00790512
  1 126 90  -6.31151700E-04
  1 87 86      -0.01117596
  1 105 88  -7.82090309E-04
  1 101 76      -0.00677010
  1 104 66      -0.01167057
  1 92 63      -0.01803574
  1 110 70      -0.01236682
  1 105 69      -0.00100285
  1 95 64      -0.01822045
  1 94 66      -0.00106215
  1 88 21      -0.00924978
  1 71 139  -2.45846017E-04
  1 83 128      -0.00779344
  1 66 127      -0.00245798
  1 71 113  -6.34195840E-04
  1 84 119  -9.51293760E-06
  1 68 107  -1.36352106E-04
  1 81 105      -0.01218246
  1 70 102      -0.00358688
  1 74 105  -3.67833587E-06
  1 68 101      -0.00565088
  1 81 112      -0.00133942
  1 53 127      -0.00422130
  1 57 133      -0.00477559
  1 48 124      -0.00433143
  1 57 130      -0.00495294
  1 53 126      -0.01609821
  1 51 131      -0.00599505
  1 48 130      -0.00937288
  1 46 128      -0.01470605
  1 59 105      -0.01688559
  1 57 118      -0.00794930
  1 34 110      -0.00688118
  1 56 106  -3.80517504E-05
  1 37 117  -1.42694064E-04
  1 51 121      -0.00452353
  1 42 106  -2.16197362E-04
  1 51 96      -0.00150520
  1 70 85      -0.00905410
  1 76 94      -0.00901164
  1 79 95  -1.74530695E-04
  1 84 85      -0.00116920
  1 71 86      -0.01088401
  1 74 95  -4.27416286E-04
  1 72 76      -0.01101376
  1 71 89      -0.01008333
  1 79 54      -0.01522726
  1 77 55      -0.02730654
  1 77 55      -0.00204871
  1 76 73  -5.06659056E-04
  1 85 62  -3.80517504E-04
  1 76 68      -0.00893690
  1 82 56      -0.11600828
  1 75 39  -1.39681634E-04
  1 77 44      -0.06838499
  1 77 44      -0.02161574
  1 76 49      -0.01389374
  1 85 37  -1.61244292E-04
  1 57 96      -0.00894882
  1 59 91      -0.00320329
  1 49 91  -3.32952816E-04
  1 51 96      -0.00870687
  1 118 106  -3.54832572E-04
  1 108 120      -0.01708222
  1 95 64      -0.01972707
  1 60 132      -0.00385813
  1 71 139  -2.05701421E-04
  1 64 107      -0.00271100
  1 68 101      -0.00565088
  1 47 133      -0.00853244
  1 48 124      -0.01112833
  1 49 123      -0.00529097
  1 49 130      -0.00443610
  1 49 123      -0.00511162
  1 52 106      -0.00256355
  1 51 121      -0.00641521
  1 46 106  -7.59069001E-04
  1 79 54      -0.02256938
  1 31 141      -0.00972501
  1 112 131  -2.21968544E-04
  1 99 99  -3.98592085E-04
  1 102 103  -3.80517504E-04
  1 101 104  -2.37823440E-05
  1 77 82  -2.04845256E-04
  1 71 129      -0.00158549
  1 90 87  -2.16894977E-04
  1 47 114  -1.90258752E-04
  1 57 121      -0.00253678
  1 63 123  -6.65905632E-04
  1 87 85  -8.68848300E-05
  1 109 134  -2.02942669E-04
  1 105 123  -3.55149670E-04
  1 82 39  -4.66133942E-04
  1 83 26  -1.85660832E-04
  1 82 46  -5.07356672E-04
  1 77 52  -1.80745814E-04
  1 78 38  -2.85388128E-04
  1 79 41  -3.10755961E-04
  1 76 42  -6.34195840E-04
  1 79 41  -5.07356672E-04
  1 77 39  -1.90258752E-04
  1 81 41  -4.42351598E-04
  1 79 40  -1.98503298E-04
  1 78 43  -5.67605277E-04
  1 78 43  -1.10984272E-04
  1 78 39  -2.12455606E-04
  1 113 114  -1.38381532E-04
  1 111 125  -1.26839168E-04
  1 111 119  -2.91254439E-04
  1 68 104  -1.26839168E-04
  1 57 108      -0.00190259
  1 58 112  -7.61035008E-04
  1 60 113  -4.75646880E-05
  1 59 115  -6.34195840E-04
  1 56 104  -1.01471334E-04
  1 57 106  -6.34195840E-04
  1 59 112  -9.51293760E-05
  1 60 114  -1.77574835E-04
  1 54 105  -6.18340944E-04
  1 49 91  -4.75646880E-04
  1 83 58  -3.80517504E-04
  1 85 57  -3.80517504E-04
  1 85 65  -3.80517504E-04
  1 82 61  -7.13470320E-05
  1 84 62  -3.80517504E-04
  1 79 59  -3.80517504E-04
  1 82 64  -3.80517504E-04
  1 82 63  -4.92770167E-04
  1 115 115      -0.00846651
  1 47 126  -1.90258752E-04
  1 48 125  -2.85388128E-04
  1 46 127  -2.66362253E-04
  1 46 122  -1.14155251E-04
  1 49 120  -1.90258752E-04
  1 51 123  -7.22983257E-04
  1 49 129  -1.26839168E-04
  1 50 127  -2.53678336E-05
  1 48 127  -6.34195840E-04
  1 36 117  -1.90258752E-04
  1 35 117  -2.37823440E-04
  1 89 64  -3.55149670E-04
  1 55 131  -1.20497210E-04
  1 56 137  -1.52207002E-04
  1 55 130  -5.83460173E-04
  1 55 132      -0.00126839
  1 55 133      -0.00126839
  1 55 132  -2.53678336E-04
  1 60 127  -9.51293760E-04
  1 60 126  -3.80517504E-04
  1 63 127  -4.56621005E-04
  1 59 129  -5.77118214E-04
  1 60 129  -3.17097920E-04
  1 60 125  -5.39066464E-04
  1 86 79  -2.02942669E-04
  1 68 127  -5.07356672E-04
  1 69 125  -1.52207002E-04
  1 68 123  -5.07356672E-04
  1 68 121  -6.34195840E-04
  1 67 120  -2.66362253E-04
  1 69 120  -1.26839168E-04
  1 67 120  -1.01471334E-04
  1 68 128  -1.90258752E-04
  1 69 121  -1.01471334E-04
  1 69 126  -7.48351091E-05
  1 69 122      -0.00122400
  1 63 127  -8.62506342E-04
  1 122 104  -5.70776256E-04
  1 74 77  -1.58548960E-04
  1 32 110  -1.90258752E-04
  1 80 55  -2.06113648E-05
  1 65 118  -5.07356672E-04
  1 63 117  -1.58548960E-04
  1 86 51      -0.00153355
  1 89 79  -3.80517504E-04
  1 89 57  -4.28082192E-04
  1 63 115  -1.71232877E-04
  1 108 131      -0.00232024
  1 80 33      -0.00108457
  1 83 48  -6.34830036E-04
  1 80 43  -2.85388128E-04
  1 77 43  -1.18911720E-04
  1 78 43  -4.71841705E-04
  1 69 107  -2.85388128E-04
  1 72 112  -8.16812532E-04
  1 95 89      -0.00107211
  1 73 97  -2.85388128E-04
  1 85 68      -0.00761035
  1 82 65  -1.90258752E-04
  1 36 117  -2.28310502E-04
  1 87 77  -9.51293760E-04
  1 98 86  -6.67808219E-04
  1 67 123  -5.07356672E-04
  1 68 125  -1.90258752E-04
  1 68 124  -1.21765601E-04
  1 63 125  -7.29325216E-04
  1 28 119      -0.00194857
  1 85 58  -5.70776256E-04
  1 91 79  -8.87874176E-05
  1 51 94  -5.89548453E-04
  1 50 89  -5.70776256E-04
  1 84 66  -6.72247590E-04
  1 45 128      -0.00751522
  1 47 122  -5.39066464E-04
  1 44 115  -5.70776256E-04
  1 47 131  -1.26839168E-04
  1 50 132  -4.43937088E-05
  1 51 132  -6.34195840E-04
  1 49 127  -2.70167428E-04
  1 86 127  -3.64662608E-04
  1 38 115  -4.69304921E-05
  1 36 112  -1.42694064E-04
  1 37 109  -2.98706240E-04
  1 40 108  -6.34195840E-05
  1 93 117      -0.00232024
  1 87 72      -0.00133181
  1 87 73      -0.00123668
  1 94 63  -1.64890918E-04
  1 89 74      -0.00237823
  1 88 61  -1.61085743E-04
  1 92 67  -3.08282598E-04
  1 56 135  -3.75443937E-04
  1 55 132  -6.34195840E-04
  1 56 132  -3.17097920E-04
  1 86 78      -0.00132610
  1 89 74  -3.74175545E-04
  1 65 124  -7.92744800E-04
  1 67 125  -9.51293760E-05
  1 64 124  -4.85159817E-04
  1 66 127  -7.86402841E-05
  1 67 124  -3.17097920E-04
  1 67 125      -0.00221969
  1 68 129  -4.75646880E-05
  1 67 125      -0.00143962
  1 79 57      -0.00406028
  1 66 128      -0.00294803
  1 95 126  -2.85388128E-04
  1 110 127      -0.01716086
  1 109 135  -6.97615424E-05
  1 103 132  -8.87874176E-04
  1 77 82  -9.86174531E-05
  1 70 112  -1.90258752E-04
  1 70 118      -0.00106317
  1 66 120  -2.09284627E-04
  1 69 112  -1.57978184E-04
  1 88 24      -0.00532725
  1 88 21      -0.00102645
  1 124 89  -3.91742770E-04
  1 71 129      -0.00190259
  1 89 86  -6.34195840E-04
  1 86 91  -5.70776256E-04
  1 56 112      -0.00155327
  1 61 123  -6.21511923E-04
  1 57 116  -2.02942669E-04
  1 106 122      -0.02072073
  1 107 124      -0.00283584
  1 108 134  -1.52207002E-04
  1 106 136  -6.59563673E-04
  1 105 128  -9.51293760E-05
  1 108 127  -1.26839168E-04
  1 103 122  -3.17097920E-04
  1 103 125  -6.49670218E-04
  1 49 88      -0.00383153
  1 87 26  -4.94672755E-04
  1 82 40  -2.91730086E-04
  1 79 36  -9.10705226E-04
  1 106 131  -8.37138508E-04
  1 103 134  -2.21968544E-04
  1 103 134  -3.17097920E-04
  1 105 132  -1.26839168E-04
  1 125 98      -0.00351195
  1 111 124  -2.28310502E-04
  1 111 125  -1.01471334E-04
  1 111 117  -5.95509893E-05
  1 115 127  -7.51490360E-04
  1 111 119  -6.78652968E-04
  1 115 118  -6.34195840E-04
  1 74 109  -2.56532217E-04
  1 72 115  -3.71955860E-04
  1 68 105  -3.80517504E-04
  1 65 106  -1.47989599E-04
  1 79 95  -6.03754439E-05
  1 76 74  -3.17097920E-04
  1 78 65  -5.07356672E-05
  1 59 113  -6.34195840E-04
  1 60 108  -3.17097920E-04
  1 57 111  -3.17097920E-04
  1 55 105  -3.75443937E-04
  1 58 114      -0.00179160
  1 60 109      -0.00114472
  1 56 106      -0.00126839
  1 60 114      -0.00126839
  1 59 110  -3.17097920E-04
  1 55 105  -4.75646880E-04
  1 92 99  -7.92744800E-06
  1 119 126      -0.00285388
  1 69 136      -0.00190259
  1 67 137  -8.33967529E-04
  1 67 137  -3.99543379E-04
  1 67 137  -9.51293760E-04
  1 67 134  -3.85020294E-04
  1 82 56  -1.71232877E-04
  1 83 56      -0.00133181
  1 81 59  -2.37823440E-04
  1 85 64  -2.15626585E-04
  1 81 65  -6.75418569E-05
  1 85 68      -0.00228311
  1 87 59  -3.80517504E-04
  1 87 60  -3.80517504E-04
  1 84 62  -3.80517504E-04
  1 66 127      -0.00142694
  1 64 124  -3.17097920E-04
  1 63 123  -1.90258752E-04
  1 67 129  -5.07356672E-04
  1 69 126  -9.51293760E-05
  1 69 127  -8.56164384E-04
  1 67 122  -6.34195840E-05
  1 107 90  -7.51204972E-05
  1 75 75  -6.34195840E-05
  1 110 70      -0.01119482
  1 31 141      -0.01019980
  1 106 89  -2.99784373E-04
  1 81 56  -2.18797565E-04
  1 35 110  -1.54268138E-04
  1 115 111      -0.01106298
  1 57 128  -9.51293760E-04
  1 57 127  -4.75646880E-04
  1 88 37  -5.70776256E-04
  1 120 134  -2.94457128E-04
  1 68 124  -3.99543379E-04
  1 50 94  -5.57141045E-05
  1 112 134  -3.55149670E-04
END period  1

