BEGIN options
END options

BEGIN dimensions
  MAXBOUND  317
END dimensions

BEGIN period  1
  1 39 78      -0.00171835
  1 60 80  -1.90258752E-04
  1 39 79  -4.41400304E-04
  1 40 76  -2.57483511E-04
  1 34 79  -2.13216641E-04
  1 32 79  -1.35559361E-04
  1 32 79  -2.66520802E-04
  1 31 80  -3.77029427E-04
  1 31 77  -1.25570776E-04
  1 29 77  -9.51293760E-05
  1 33 75  -2.30213090E-05
  1 38 77  -3.41926687E-04
  1 42 76      -0.00123193
  1 40 77  -6.89687976E-05
  1 40 85  -1.43011162E-04
  1 41 86  -1.04008118E-04
  1 41 84  -4.55035515E-05
  1 37 82  -6.15613902E-04
  1 40 83  -2.60020294E-04
  1 40 80  -1.56012177E-04
  1 41 77  -2.47019280E-04
  1 38 84  -8.45065956E-04
  1 31 71  -2.28817859E-04
  1 43 71  -8.43480467E-05
  1 42 71  -6.34195840E-05
  1 45 77  -1.56012177E-04
  1 42 78  -2.99023338E-04
  1 42 78  -1.50811771E-04
  1 32 78  -1.04642314E-04
  1 31 77  -5.42237443E-05
  1 33 81  -1.56012177E-04
  1 34 84  -3.17415018E-05
  1 39 70  -7.80060883E-04
  1 38 71  -3.17415018E-05
  1 38 68  -7.92744800E-05
  1 73 81  -3.80517504E-05
  1 33 57  -4.88330797E-04
  1 33 58  -1.40315830E-04
  1 34 57  -1.58548960E-05
  1 59 50  -1.90258752E-04
  1 38 65  -4.75646880E-05
  1 39 66  -2.08016235E-04
  1 38 66  -9.67148656E-05
  1 39 68  -3.17097920E-05
  1 36 83  -7.22983257E-05
  1 36 84  -1.69013191E-04
  1 40 84  -1.30010147E-04
  1 43 75  -2.15626585E-04
  1 42 75  -2.10870117E-04
  1 61 74  -1.80745814E-04
  1 70 81  -3.17415018E-05
  1 45 75  -1.17009132E-04
  1 43 79  -1.64573820E-04
  1 42 79  -1.62512684E-04
  1 42 78  -6.50050736E-05
  1 44 75  -1.30010147E-04
  1 43 77  -4.09531963E-04
  1 43 77  -4.55035515E-05
  1 42 78  -3.17415018E-05
  1 42 78  -1.95015221E-04
  1 44 67  -1.48116438E-04
  1 44 67  -1.90258752E-04
  1 43 73  -3.42465753E-04
  1 43 74  -8.94216134E-04
  1 41 75  -5.51750381E-04
  1 65 54  -1.22082699E-04
  1 74 74  -6.65905632E-04
  1 70 84  -1.90258752E-04
  1 77 79  -1.78367580E-04
  1 77 79  -3.56735160E-04
  1 77 79  -1.78367580E-04
  1 77 80  -7.13470320E-04
  1 77 80  -3.56735160E-04
  1 77 80  -3.56735160E-04
  1 77 80  -1.78367580E-04
  1 77 79  -1.78367580E-04
  1 77 79  -1.78367580E-04
  1 77 79  -3.56735160E-04
  1 77 79  -3.56735160E-04
  1 77 79  -1.78367580E-04
  1 77 79  -1.78367580E-04
  1 76 79  -8.91996449E-05
  1 76 79  -8.91996449E-05
  1 75 84  -8.84703196E-04
  1 75 85  -2.04052511E-04
  1 77 80  -3.56735160E-04
  1 65 54  -8.80739472E-04
  1 64 56  -9.72317352E-04
  1 74 82  -9.23515982E-04
  1 74 82  -3.17415018E-05
  1 48 61  -1.90258752E-04
  1 45 65  -4.28082192E-04
  1 76 71  -3.36123795E-04
  1 75 72  -5.07356672E-04
  1 75 72  -6.02486048E-05
  1 32 80  -8.56164384E-05
  1 31 80  -2.56849315E-04
  1 32 80  -3.17415018E-05
  1 74 75  -7.99086758E-05
  1 74 75  -3.80200406E-04
  1 36 66  -7.13470320E-04
  1 40 82  -2.68581938E-05
  1 41 85  -1.03944698E-04
  1 43 79  -1.04008118E-04
  1 44 82  -1.77479706E-04
  1 44 83  -1.42852613E-04
  1 45 80  -3.62760020E-05
  1 45 75  -6.59246575E-05
  1 44 80  -2.10870117E-04
  1 44 77  -5.07356672E-05
  1 37 86  -6.28488077E-04
  1 38 83  -2.92364282E-04
  1 41 78  -1.77574835E-04
  1 41 78  -2.61922882E-04
  1 45 77  -1.56519533E-04
  1 42 77  -9.10071030E-05
  1 38 68      -0.00107877
  1 37 66  -3.08124049E-04
  1 36 67  -6.16248097E-04
  1 39 83  -1.36510654E-04
  1 43 78  -6.50050736E-05
  1 44 83  -4.88330797E-05
  1 41 80  -1.27631913E-04
  1 44 77  -3.17415018E-05
  1 44 76  -2.09918823E-04
  1 44 80  -4.99112126E-05
  1 43 79  -7.52790462E-05
  1 45 77  -3.25025368E-04
  1 45 76  -5.20040589E-05
  1 45 77  -1.30010147E-04
  1 72 80      -0.00114155
  1 72 80  -3.17415018E-05
  1 38 76  -8.48236936E-04
  1 73 84  -2.72387113E-04
  1 72 84  -3.33587012E-04
  1 73 84  -3.12024353E-04
  1 39 82  -3.17415018E-05
  1 35 76  -1.84233891E-04
  1 36 76  -9.41780822E-05
  1 42 77  -3.05365297E-04
  1 42 77  -1.37937595E-04
  1 40 73  -3.48807712E-04
  1 38 78  -3.17415018E-05
  1 24 71  -1.28012430E-04
  1 24 74  -2.50158549E-04
  1 24 74  -2.76382547E-04
  1 21 69  -1.04642314E-04
  1 39 72  -5.58092339E-05
  1 35 63  -3.17415018E-05
  1 43 78  -1.30010147E-04
  1 42 78  -6.71296296E-05
  1 42 77  -7.28056824E-05
  1 33 81  -3.17415018E-05
  1 33 81  -3.50393201E-04
  1 31 82  -1.69013191E-04
  1 33 80  -5.23211568E-05
  1 33 80  -7.02054795E-05
  1 33 79  -1.86453577E-04
  1 30 81  -2.85388128E-05
  1 33 82  -7.35667174E-05
  1 33 82  -7.35667174E-05
  1 33 83  -1.04008118E-04
  1 43 79  -1.56012177E-04
  1 37 81  -8.48236936E-04
  1 38 84  -5.65544140E-04
  1 37 82  -1.32546930E-04
  1 41 81  -1.26902588E-04
  1 70 81  -1.26839168E-04
  1 71 80  -8.37138508E-05
  1 72 76  -5.86631152E-05
  1 72 76  -3.17415018E-05
  1 74 84  -1.49131152E-04
  1 64 80  -1.26839168E-04
  1 61 80  -1.11618468E-04
  1 72 87  -4.67719432E-04
  1 62 74  -1.22082699E-04
  1 58 82  -4.72475901E-04
  1 58 82  -3.17415018E-05
  1 62 75  -1.93271182E-04
  1 39 66  -3.55149670E-04
  1 39 66  -7.92744800E-05
  1 38 66  -3.80517504E-04
  1 39 69  -3.40246068E-05
  1 39 71  -3.17415018E-05
  1 40 72  -3.17415018E-05
  1 38 70  -2.34652461E-04
  1 39 68  -3.00291730E-04
  1 39 70  -3.78932014E-04
  1 60 72  -1.79477423E-04
  1 70 80  -8.89459665E-05
  1 69 84  -5.33675799E-04
  1 69 84  -3.41197362E-04
  1 70 83  -1.20497210E-04
  1 70 83  -3.17415018E-05
  1 71 80  -5.01014713E-05
  1 68 80  -3.17415018E-05
  1 74 87  -1.51826484E-04
  1 33 80  -3.77790462E-04
  1 40 82  -6.11998985E-04
  1 39 72  -1.74403856E-04
  1 37 65  -1.49036022E-04
  1 38 65  -3.39294774E-04
  1 37 66  -2.46067986E-04
  1 37 66  -3.17415018E-05
  1 39 67  -2.74289701E-04
  1 44 75  -1.85185185E-04
  1 44 75  -2.21017250E-04
  1 43 79  -3.90030441E-04
  1 37 83  -2.43214105E-04
  1 37 83  -5.46042618E-04
  1 37 82  -1.86770675E-04
  1 37 82  -3.17415018E-05
  1 37 83  -2.53519787E-04
  1 36 84  -1.56012177E-04
  1 36 85  -1.30010147E-04
  1 39 82  -1.95015221E-04
  1 40 80  -7.13470320E-05
  1 37 80  -3.31525875E-04
  1 38 84  -3.25025368E-04
  1 38 84  -9.10071030E-04
  1 35 78  -3.64028412E-04
  1 36 78  -1.58548960E-04
  1 36 77  -3.25025368E-04
  1 36 79  -2.47336377E-04
  1 37 78  -4.57889396E-04
  1 79 68  -1.14630898E-04
  1 79 67  -9.59221208E-05
  1 79 67  -6.34195840E-05
  1 68 75  -2.80948757E-04
  1 69 76  -1.17326230E-04
  1 67 75  -1.78684678E-04
  1 76 71  -9.51293760E-05
  1 76 72  -1.26839168E-04
  1 74 86  -2.40994419E-04
  1 60 72  -2.48921867E-04
  1 40 75  -1.77891933E-04
  1 38 73  -5.05771182E-05
  1 61 72  -8.49029680E-04
  1 42 81  -6.11047692E-05
  1 37 85  -3.17415018E-05
  1 33 83  -5.14967022E-05
  1 36 78  -1.92795535E-04
  1 33 84  -7.22983257E-05
  1 35 77  -1.09208524E-04
  1 35 76  -7.28056824E-05
  1 37 76  -2.34018265E-04
  1 21 71  -6.97615424E-05
  1 23 71  -1.74403856E-04
  1 25 72  -8.37138508E-05
  1 38 71  -6.50050736E-04
  1 38 71  -2.60020294E-04
  1 28 71  -1.93937088E-04
  1 40 71  -1.04008118E-04
  1 39 68  -9.28779807E-05
  1 38 65  -1.46182141E-04
  1 38 64  -1.00234652E-04
  1 38 67  -3.17415018E-05
  1 33 80  -1.48401826E-04
  1 33 80  -2.60020294E-04
  1 31 77  -1.74720954E-04
  1 31 74  -2.61605784E-04
  1 32 76  -6.83663115E-05
  1 36 78  -1.04642314E-04
  1 74 86  -3.32191781E-04
  1 74 86  -3.78995434E-04
  1 75 85  -1.95205479E-04
  1 74 80  -1.94063927E-04
  1 70 79  -3.97640791E-04
  1 70 80  -3.80517504E-05
  1 68 75  -3.17415018E-05
  1 19 74  -6.27853881E-04
  1 19 74  -5.69190766E-04
  1 25 72  -1.22082699E-04
  1 24 72  -3.17415018E-05
  1 40 70  -2.21968544E-04
  1 39 71  -5.02283105E-05
  1 39 69  -6.50050736E-04
  1 36 66  -5.58092339E-05
  1 43 74  -4.59791984E-05
  1 42 74  -1.56329274E-04
  1 42 73  -3.67833587E-05
  1 43 76  -2.60020294E-04
  1 67 51  -5.47628108E-04
  1 67 51  -5.05771182E-04
  1 72 50  -8.72019280E-04
  1 72 52  -6.68854642E-04
  1 71 52  -5.92973110E-04
  1 71 52  -5.78164637E-04
  1 71 53  -6.22621766E-04
  1 72 53  -2.86022324E-04
  1 70 53  -3.13926941E-04
  1 71 54  -9.59221208E-04
  1 72 51  -7.27264079E-04
  1 72 51  -6.63622527E-04
  1 79 72  -7.29895992E-04
  1 79 72  -4.05504820E-04
  1 79 72  -4.32521563E-04
  1 79 72  -7.02847539E-04
  1 78 72  -4.32521563E-04
  1 78 71  -8.72019280E-04
  1 78 71  -6.72342719E-04
  1 78 71      -0.00100720
  1 77 70  -8.30162354E-04
  1 77 71  -4.36009640E-04
  1 77 72      -0.00101329
  1 76 73      -0.00164900
  1 76 73  -3.17415018E-05
  1 77 70  -5.85996956E-04
  1 43 79  -3.85273973E-04
  1 43 78  -5.46042618E-05
  1 41 77  -2.89161593E-04
  1 56 75  -2.77555809E-04
  1 56 75  -3.17510147E-04
  1 45 77  -7.80060883E-05
  1 45 77  -3.90030441E-05
  1 44 75  -7.80060883E-05
  1 33 58  -3.48807712E-04
END period  1

