BEGIN options
  SAVE_FLOWS
END options

BEGIN dimensions
  MAXBOUND  88
END dimensions

BEGIN period  1
  1 3 97       0.00000000
  1 52 96       0.00000000
  1 33 97       0.00000000
  1 3 92       0.00000000
  1 59 96       0.00000000
  1 3 94       0.00000000
  1 83 100       0.00000000
  1 49 96       0.00000000
  1 32 97       0.00000000
  1 3 96       0.00000000
  1 21 97       0.00000000
  1 47 97       0.00000000
  1 36 97       0.00000000
  1 50 96       0.00000000
  1 71 98       0.00000000
  1 4 99       0.00000000
  1 56 96       0.00000000
  1 25 97       0.00000000
  1 10 99       0.00000000
  1 73 98       0.00000000
  1 34 97       0.00000000
  1 80 99       0.00000000
  1 75 98       0.00000000
  1 63 96       0.00000000
  1 13 99       0.00000000
  1 17 98       0.00000000
  1 53 96       0.00000000
  1 9 100       0.00000000
  1 22 97       0.00000000
  1 37 97       0.00000000
  1 54 96       0.00000000
  1 4 92       0.00000000
  1 5 100       0.00000000
  1 67 97       0.00000000
  1 72 98       0.00000000
  1 26 97       0.00000000
  1 16 98       0.00000000
  1 11 99       0.00000000
  1 82 100       0.00000000
  1 35 97       0.00000000
  1 40 97       0.00000000
  1 51 96       0.00000000
  1 76 98       0.00000000
  1 70 98       0.00000000
  1 29 97       0.00000000
  1 14 99       0.00000000
  1 23 97       0.00000000
  1 44 97       0.00000000
  1 18 98       0.00000000
  1 38 97       0.00000000
  1 79 98       0.00000000
  1 12 99       0.00000000
  1 68 97       0.00000000
  1 74 98       0.00000000
  1 3 93       0.00000000
  1 27 97       0.00000000
  1 60 96       0.00000000
  1 3 95       0.00000000
  1 65 96       0.00000000
  1 6 100       0.00000000
  1 55 96       0.00000000
  1 77 98       0.00000000
  1 81 99       0.00000000
  1 66 97       0.00000000
  1 19 98       0.00000000
  1 30 97       0.00000000
  1 4 98       0.00000000
  1 57 96       0.00000000
  1 15 99       0.00000000
  1 24 97       0.00000000
  1 45 97       0.00000000
  1 39 97       0.00000000
  1 58 96       0.00000000
  1 69 97       0.00000000
  1 28 97       0.00000000
  1 64 96       0.00000000
  1 41 96       0.00000000
  1 7 100       0.00000000
  1 43 97       0.00000000
  1 48 97       0.00000000
  1 78 98       0.00000000
  1 31 97       0.00000000
  1 61 96       0.00000000
  1 46 97       0.00000000
  1 20 98       0.00000000
  1 62 96       0.00000000
  1 42 96       0.00000000
  1 8 100       0.00000000
END period  1

