BEGIN options
  XORIGIN  6.60000000E+05
  YORIGIN  6.15000000E+06
END options

BEGIN dimensions
  NLAY  1
  NROW  30
  NCOL  30
END dimensions

BEGIN griddata
  delr
    INTERNAL  FACTOR  1.0
      1500.00000000    1500.00000000    1500.00000000    1500.00000000    1500.00000000    1500.00000000    1500.00000000    1500.00000000    1500.00000000    1500.00000000    1500.00000000    1500.00000000    1500.00000000    1500.00000000    1500.00000000    1500.00000000    1500.00000000    1500.00000000    1500.00000000    1500.00000000
      1500.00000000    1500.00000000    1500.00000000    1500.00000000    1500.00000000    1500.00000000    1500.00000000    1500.00000000    1500.00000000    1500.00000000
  delc
    INTERNAL  FACTOR  1.0
      1833.33333333    1833.33333333    1833.33333333    1833.33333333    1833.33333333    1833.33333333    1833.33333333    1833.33333333    1833.33333333    1833.33333333    1833.33333333    1833.33333333    1833.33333333    1833.33333333    1833.33333333    1833.33333333    1833.33333333    1833.33333333    1833.33333333    1833.33333333
      1833.33333333    1833.33333333    1833.33333333    1833.33333333    1833.33333333    1833.33333333    1833.33333333    1833.33333333    1833.33333333    1833.33333333
  top
    INTERNAL  FACTOR  1.0
         0.00000000       0.00000000       0.00000000       0.00000000       0.00000000       0.00000000       0.00000000       0.00000000       0.00000000       0.00000000       0.00000000       0.00000000       0.00000000       0.00000000       0.00000000       0.00000000       0.00000000       0.00000000       0.00000000       0.00000000
         0.00000000       0.00000000       0.00000000       0.00000000       0.00000000       0.00000000       4.63870764       7.37091303      13.14930058      17.52855682
         0.00000000       0.00000000       0.00000000       0.00000000       0.00000000       0.00000000       0.00000000       0.00000000       0.00000000       0.00000000       0.00000000       0.00000000       0.00000000       0.00000000       0.00000000       0.00000000       0.00000000       0.00000000       0.00000000       0.00000000
         0.00000000       0.00000000       0.00000000       0.00000000       0.00000000       0.00000000       2.86239862      15.68513584      45.92110062      41.22127533
         0.00000000       0.00000000       0.00000000       0.00000000       0.00000000       0.00000000       0.00000000       0.00000000       0.00000000       0.00000000       0.00000000       0.00000000       0.00000000       0.00000000       0.00000000       0.00000000       0.00000000       0.00000000       0.00000000       0.00000000
       374.01721191     264.91931152     201.84001160     144.07153320     151.15354919      82.22988892       5.41683578       5.77561378      13.92310810      13.16992760
         0.00000000       0.00000000       0.00000000       0.00000000       0.00000000       0.00000000       0.00000000       0.00000000       0.00000000       0.00000000       0.00000000       0.00000000       0.00000000       0.00000000       0.00000000       0.00000000       0.00000000       0.00000000       0.00000000       0.00000000
       315.54922485     226.43611145     222.43850708     162.14826965     136.64276123      62.06724167       5.95114660       0.06999999       0.09027040       1.22747242
         0.00000000       0.00000000       0.00000000       0.00000000       0.00000000       0.00000000       0.00000000       0.00000000       0.00000000       0.00000000       0.00000000       0.00000000       0.00000000       0.00000000       0.00000000       0.00000000       0.00000000       0.00000000       0.00000000       0.00000000
       160.70939636     186.24256897     176.49932861     159.33340454     135.00288391      55.69651794       2.09460640       0.06999999       0.70774639       1.41126704
         0.00000000       0.00000000       0.00000000       0.00000000       0.00000000       0.00000000       0.00000000       0.00000000       0.00000000       0.00000000       0.00000000       0.00000000       0.00000000       0.00000000       0.00000000       0.00000000     282.68923950     257.39212036     172.62431335     168.26251221
       176.16850281     132.25521851      66.90786743      36.61795807      11.52052212       0.16925910       0.06999999       0.18278138       1.25849843       2.39492869
         0.00000000       0.00000000       0.00000000       0.00000000       0.00000000       0.00000000       0.00000000       0.00000000       0.00000000       0.00000000       0.00000000       0.00000000       0.00000000       0.00000000       0.00000000       0.00000000     229.75885010     191.39030457     123.40992737     114.82695770
       106.05918884      60.28823853       7.78913736       0.54261744       0.14247893       0.06999999       0.06999999       0.19744590       1.31100869       2.05851889
         0.00000000       0.00000000       0.00000000       0.00000000       0.00000000       0.00000000       0.00000000       0.00000000       0.00000000       0.00000000       0.00000000       0.00000000       0.00000000       0.00000000       0.00000000       0.00000000     173.53695679     126.16398621      75.67050171      66.80305481
        41.50783157      22.82902718       8.89968491       3.05434322       0.61549222       0.07045183       0.06999999       0.26145107       1.53976560       0.00000000
         0.00000000       0.00000000       0.00000000       0.00000000       0.00000000       0.00000000       0.00000000       0.00000000       0.00000000       0.00000000       0.00000000       0.00000000       0.00000000       0.00000000       0.00000000       0.00000000     100.19604492      73.65073395      49.78959656      44.53642654
        31.60210037      18.44128990      11.10432529       6.38958263       1.93574703       0.57657254       0.37174696       0.63944638       1.44493282       0.00000000
         0.00000000       0.00000000       0.00000000       0.00000000       0.00000000       0.00000000       0.00000000       0.00000000       0.00000000       0.00000000       0.00000000       0.00000000       0.00000000       0.00000000       0.00000000       0.00000000      57.79168320      43.90971375      33.95029831      29.98745155
        23.28826904      17.78516197      13.67030048       8.63331604       3.45333385       2.80402827       1.82646596       1.37146270       1.80938554       0.00000000
         0.00000000       0.00000000       0.00000000       0.00000000       0.00000000       0.00000000       0.00000000       0.00000000       0.00000000       0.00000000     135.67497253     223.21029663     265.40539551     274.80374146     241.94221497     206.37777710      79.34851074      47.12829971      28.83377457      23.09455681
        18.91455078      16.95793915      14.32215595       9.76997566       6.23751497       5.00342989       3.75808334       2.66584754       1.79673946       0.00000000
         0.00000000       0.00000000       0.00000000       0.00000000       0.00000000       0.00000000       0.00000000       0.00000000       0.00000000       0.00000000     170.97497559     199.15405273     256.46890259     214.76504517     180.25779724     141.55241394      89.18944550      61.47634506      46.53202820      34.99669266
        24.70520210      14.67181301      11.99297905      10.32578182       8.73774242       6.20866394       4.00057364       2.33879948       1.61126328       0.00000000
         0.00000000       0.00000000       0.00000000       0.00000000       0.00000000       0.00000000       0.00000000       0.00000000       0.00000000       0.00000000     284.20193481     224.14892578     210.83851624     185.63352966     133.71093750     106.64861298      93.58948517      78.35243988      59.31547546      43.06409454
        31.07140541      23.69864464      16.86557961      11.78705978       9.44946575       7.07618999       4.73892927       2.75697041       1.92247891       0.00000000
         0.00000000       0.00000000       0.00000000     418.16583252     375.72882080     354.46359253     346.61495972     283.61569214     220.63796997     202.28076172     250.82003784     194.77879333     145.14048767     120.23268127     111.48987579      95.70285034      80.11600494      65.12280273      54.68357086      42.50976181
        30.60391617      22.25692177      17.94477844      15.41808701      12.56147766       9.82811451       6.72718239       4.24102068       2.19094753       0.00000000
         0.00000000       0.00000000       0.00000000     388.03866577     344.97525024     301.18395996     274.57434082     211.75837708     150.76902771     134.16134644     125.82462311     115.93844604     100.36654663      91.97559357      77.11886597      66.43984222      57.57715988      48.60080719      39.19202423      33.65600204
        29.33143044      26.95139122      26.27539825      28.55026245      27.87813759      19.54753113      11.71201324       6.00256634       2.21236753       0.00000000
         0.00000000       0.00000000       0.00000000     392.11553955     345.80047607     243.05665588     155.36083984     123.11011505     113.96116638     104.69989777      96.26068115      87.28590393      78.28220367      69.54483032      64.65056610      60.06575775      55.29921341      49.81484222      45.82718277      39.42604446
        41.01312256      46.30567932      40.54584122      40.67572021      31.83350563      20.42815208       7.35854101       3.27791238       2.12262464       0.00000000
       475.43237305     446.72720337     408.65124512     291.01303101     230.92382812     156.83311462     139.34498596     132.39076233     129.53027344     126.44488525     116.31239319     105.91168213      95.60031128      86.19730377      78.24167633      70.22156525      62.78290939      56.54700089      50.51140594      53.81964493
        54.34523392      44.92333221      32.35445786      24.70122528      17.12059975       7.26693153       2.75151873       0.51956058       1.30177021       0.00000000
       348.02084351     301.72100830     237.00897217     206.10081482     178.62046814     195.33349609     187.67997742     204.52183533     176.46127319     170.23878479     134.20866394     118.55302429     103.31685638      93.81723022      85.93407440      77.78292084      72.72437286      63.80363846      62.83201218      61.42688370
        49.10528183      34.50070190      26.42207909      19.52038574      13.47720146       7.00521564       3.04898858       0.58832878       1.03833687       0.00000000
       281.17990112     286.82620239     280.11782837     321.56228638     350.77072144     376.62023926     325.08224487     386.37014771     305.04504395     236.05308533     200.32321167     167.44125366     111.05382538      97.53699493      90.73631287      89.48477173      85.33849335      79.47940063      64.18212891      50.51681137
        40.61138535      26.48338509      23.97339058      15.58796978      11.99620342       7.55232191       3.37736034       1.21849072       1.93736398       0.00000000
       309.63400269     291.94293213     396.19296265     473.58569336     378.88217163     481.50100708     375.11599731     365.96990967     382.21267700     301.68264771     289.16955566     272.84152222     167.77098083     116.83359528     104.20101929     104.81703949      92.57190704      74.43074036      64.75247192      54.91187668
        27.75778198      20.72844887      12.33149242       9.71213722       9.68265343       7.60868788       5.35160732       2.82938981       1.90238428       0.00000000
         0.00000000       0.00000000       0.00000000       0.00000000       0.00000000       0.00000000       0.00000000       0.00000000       0.00000000       0.00000000     323.02001953     259.54098511     165.78045654     139.62460327     128.48358154     117.94152832     106.13517761      93.90601349      73.11480713      62.19989014
        24.81866074      22.51280212      18.29344749      14.30174732      14.80849552      11.64636612      10.23468018       4.76108408       2.32327366       1.75862455
         0.00000000       0.00000000       0.00000000       0.00000000       0.00000000       0.00000000       0.00000000       0.00000000       0.00000000       0.00000000     255.75959778     224.30773926     181.18623352     150.98223877     134.99438477     120.26093292     103.83396912      89.31806183      82.97461700      80.01387787
        60.80950928      45.46045303      43.81440353      33.32629013      20.04164124      14.43185043       9.73182201       6.34869814       3.12744594       1.92014205
         0.00000000       0.00000000       0.00000000       0.00000000       0.00000000       0.00000000       0.00000000       0.00000000       0.00000000       0.00000000     289.04208374     255.52406311     229.28105164     167.46495056     151.81703186     138.65481567     117.33782196     118.09011078      95.90057373      79.16875458
        71.09580994      48.11385345      31.97093201      24.74728584      20.91620255      15.76455116      10.51772785       6.32910967       3.24161553       2.42036748
         0.00000000       0.00000000       0.00000000       0.00000000       0.00000000       0.00000000       0.00000000       0.00000000       0.00000000       0.00000000     405.40945435     363.31954956     306.03713989     227.35488892     175.29266357     153.35437012     156.50836182     128.92906189      94.37168121      71.75432587
        47.63760757      41.79959488      37.79550171      34.61564636      32.93520355      28.47436905      23.66753006      12.83798599       3.61624074       3.42443705
         0.00000000       0.00000000       0.00000000       0.00000000       0.00000000       0.00000000       0.00000000       0.00000000       0.00000000       0.00000000     451.63467407     418.68411255     347.47094727     251.83273315     186.62274170     154.46049500     128.18431091     109.66608429      76.98615265      61.71553040
        59.54308701      59.96275711      57.26638031      57.02242661      55.86684036      54.45904922      45.40708542      26.90343285      17.50421524       9.94592571
         0.00000000       0.00000000       0.00000000       0.00000000       0.00000000       0.00000000       0.00000000       0.00000000       0.00000000       0.00000000     388.20135498     308.80758667     264.11022949     189.85595703     164.70884705     134.17739868      99.87550354      80.21804047      96.00201416     123.45667267
       122.44739532     127.31739807     109.46750641     104.54878998     138.45339966     188.45832825     209.52848816     197.36158752     164.54614258      89.44888306
         0.00000000       0.00000000       0.00000000       0.00000000       0.00000000       0.00000000       0.00000000       0.00000000       0.00000000       0.00000000     293.87509155     250.58973694     207.66276550     148.91554260     114.11331177     100.82273102      98.77145386     171.77311707     248.75585938     361.92144775
       397.20462036     400.74020386     365.43032837     391.69540405     316.18429565     413.15493774     329.69369507     435.82479858     417.35406494     207.95730591
         0.00000000       0.00000000       0.00000000       0.00000000       0.00000000       0.00000000       0.00000000       0.00000000       0.00000000       0.00000000     217.00254822     213.75415039     169.06292725     142.89430237     145.41979980     138.48295593     141.80194092     210.93992615     260.03500366     541.77380371
       732.14349365     696.97698975     562.86273193     681.10119629     505.86825562     457.25820923     576.08197021     428.02716064     566.89642334     269.47024536
         0.00000000       0.00000000       0.00000000       0.00000000       0.00000000       0.00000000       0.00000000       0.00000000       0.00000000       0.00000000     335.90197754     328.43667603     406.47079468     363.53005981     321.47332764     240.30276489     244.49497986       0.00000000       0.00000000       0.00000000
         0.00000000       0.00000000       0.00000000       0.00000000       0.00000000       0.00000000       0.00000000       0.00000000       0.00000000       0.00000000
         0.00000000       0.00000000       0.00000000       0.00000000       0.00000000       0.00000000       0.00000000       0.00000000       0.00000000       0.00000000     728.36224365     636.10290527     593.22253418     748.88677979     638.97869873     371.04788208     453.35711670       0.00000000       0.00000000       0.00000000
         0.00000000       0.00000000       0.00000000       0.00000000       0.00000000       0.00000000       0.00000000       0.00000000       0.00000000       0.00000000
  botm
    CONSTANT    -100.00000000
  idomain
    INTERNAL  FACTOR  1
    0  0  0  0  0  0  0  0  0  0  0  0  0  0  0  0  0  0  0  0
    0  0  0  0  0  0  0  1  1  1
    0  0  0  0  0  0  0  0  0  0  0  0  0  0  0  0  0  0  0  0
    0  0  0  0  0  0  0  1  1  1
    0  0  0  0  0  0  0  0  0  0  0  0  0  0  0  0  0  0  0  0
    0  0  0  0  0  0  0  1  1  1
    0  0  0  0  0  0  0  0  0  0  0  0  0  0  0  0  0  0  0  0
    0  0  0  0  0  0  1  1  1  1
    0  0  0  0  0  0  0  0  0  0  0  0  0  0  0  0  0  0  0  0
    0  0  0  0  0  1  1  1  1  1
    0  0  0  0  0  0  0  0  0  0  0  0  0  0  0  0  0  0  0  0
    0  0  1  1  1  1  1  1  1  1
    0  0  0  0  0  0  0  0  0  0  0  0  0  0  0  0  0  0  0  0
    0  1  1  1  1  1  1  1  1  1
    0  0  0  0  0  0  0  0  0  0  0  0  0  0  0  0  0  0  1  1
    1  1  1  1  1  1  1  1  1  0
    0  0  0  0  0  0  0  0  0  0  0  0  0  0  0  0  0  1  1  1
    1  1  1  1  1  1  1  1  1  0
    0  0  0  0  0  0  0  0  0  0  0  0  0  0  0  0  0  1  1  1
    1  1  1  1  1  1  1  1  1  0
    0  0  0  0  0  0  0  0  0  0  0  0  0  0  0  0  1  1  1  1
    1  1  1  1  1  1  1  1  1  0
    0  0  0  0  0  0  0  0  0  0  0  0  0  0  1  1  1  1  1  1
    1  1  1  1  1  1  1  1  1  0
    0  0  0  0  0  0  0  0  0  0  0  0  0  0  1  1  1  1  1  1
    1  1  1  1  1  1  1  1  1  0
    0  0  0  0  0  0  0  0  0  1  1  1  1  1  1  1  1  1  1  1
    1  1  1  1  1  1  1  1  1  0
    0  0  0  0  0  0  0  1  1  1  1  1  1  1  1  1  1  1  1  1
    1  1  1  1  1  1  1  1  1  0
    0  0  0  0  0  1  1  1  1  1  1  1  1  1  1  1  1  1  1  1
    1  1  1  1  1  1  1  1  1  0
    0  0  0  0  1  1  1  1  1  1  1  1  1  1  1  1  1  1  1  1
    1  1  1  1  1  1  1  1  1  0
    0  0  1  1  1  1  1  1  1  1  1  1  1  1  1  1  1  1  1  1
    1  1  1  1  1  1  1  1  1  0
    0  0  0  0  0  0  0  0  0  0  1  1  1  1  1  1  1  1  1  1
    1  1  1  1  1  1  1  1  1  0
    0  0  0  0  0  0  0  0  0  0  0  0  1  1  1  1  1  1  1  1
    1  1  1  1  1  1  1  1  1  0
    0  0  0  0  0  0  0  0  0  0  0  0  1  1  1  1  1  1  1  1
    1  1  1  1  1  1  1  1  1  1
    0  0  0  0  0  0  0  0  0  0  0  1  1  1  1  1  1  1  1  1
    1  1  1  1  1  1  1  1  1  1
    0  0  0  0  0  0  0  0  0  0  0  0  1  1  1  1  1  1  1  1
    1  1  1  1  1  1  1  1  1  1
    0  0  0  0  0  0  0  0  0  0  0  0  0  1  1  1  1  1  1  1
    1  1  1  1  1  1  1  1  1  1
    0  0  0  0  0  0  0  0  0  0  0  0  0  1  1  1  1  1  1  1
    1  1  1  1  1  1  1  1  1  1
    0  0  0  0  0  0  0  0  0  0  0  0  1  1  1  1  1  1  1  1
    1  1  1  1  1  1  0  0  0  0
    0  0  0  0  0  0  0  0  0  0  0  1  1  1  1  1  1  0  0  0
    0  1  0  1  0  0  0  0  0  0
    0  0  0  0  0  0  0  0  0  0  0  1  1  1  1  1  1  0  0  0
    0  0  0  0  0  0  0  0  0  0
    0  0  0  0  0  0  0  0  0  0  0  0  0  1  1  1  0  0  0  0
    0  0  0  0  0  0  0  0  0  0
    0  0  0  0  0  0  0  0  0  0  0  0  0  0  0  0  0  0  0  0
    0  0  0  0  0  0  0  0  0  0
END griddata

