BEGIN options
  SAVE_FLOWS
END options

BEGIN dimensions
  MAXBOUND  27
END dimensions

BEGIN period  1
  1 2 40       0.00000000
  1 21 39       0.00000000
  1 24 40       0.00000000
  1 5 40       0.00000000
  1 15 39       0.00000000
  1 8 39       0.00000000
  1 20 39       0.00000000
  1 14 39       0.00000000
  1 11 39       0.00000000
  1 23 40       0.00000000
  1 17 39       0.00000000
  1 4 40       0.00000000
  1 1 39       0.00000000
  1 10 39       0.00000000
  1 7 39       0.00000000
  1 1 38       0.00000000
  1 9 39       0.00000000
  1 1 37       0.00000000
  1 22 39       0.00000000
  1 19 39       0.00000000
  1 16 39       0.00000000
  1 3 40       0.00000000
  1 13 39       0.00000000
  1 6 40       0.00000000
  1 18 39       0.00000000
  1 25 40       0.00000000
  1 12 39       0.00000000
END period  1

