BEGIN options
  XORIGIN  6.60000000E+05
  YORIGIN  6.15000000E+06
END options

BEGIN dimensions
  NLAY  1
  NROW  30
  NCOL  40
END dimensions

BEGIN griddata
  delr
    INTERNAL  FACTOR  1.0
      1125.00000000    1125.00000000    1125.00000000    1125.00000000    1125.00000000    1125.00000000    1125.00000000    1125.00000000    1125.00000000    1125.00000000    1125.00000000    1125.00000000    1125.00000000    1125.00000000    1125.00000000    1125.00000000    1125.00000000    1125.00000000    1125.00000000    1125.00000000
      1125.00000000    1125.00000000    1125.00000000    1125.00000000    1125.00000000    1125.00000000    1125.00000000    1125.00000000    1125.00000000    1125.00000000    1125.00000000    1125.00000000    1125.00000000    1125.00000000    1125.00000000    1125.00000000    1125.00000000    1125.00000000    1125.00000000    1125.00000000
  delc
    INTERNAL  FACTOR  1.0
      1833.33333333    1833.33333333    1833.33333333    1833.33333333    1833.33333333    1833.33333333    1833.33333333    1833.33333333    1833.33333333    1833.33333333    1833.33333333    1833.33333333    1833.33333333    1833.33333333    1833.33333333    1833.33333333    1833.33333333    1833.33333333    1833.33333333    1833.33333333
      1833.33333333    1833.33333333    1833.33333333    1833.33333333    1833.33333333    1833.33333333    1833.33333333    1833.33333333    1833.33333333    1833.33333333
  top
    CONSTANT      10.00000000
  botm
    CONSTANT    -100.00000000
  idomain
    INTERNAL  FACTOR  1
    0  0  0  0  0  0  0  0  0  0  0  0  0  0  0  0  0  0  0  0
    0  0  0  0  0  0  0  0  0  0  0  0  0  0  0  0  1  1  1  0
    0  0  0  0  0  0  0  0  0  0  0  0  0  0  0  0  0  0  0  0
    0  0  0  0  0  0  0  0  0  0  0  0  0  0  0  0  1  1  1  1
    0  0  0  0  0  0  0  0  0  0  0  0  0  0  0  0  0  0  0  0
    0  0  0  0  0  0  0  0  0  0  0  0  0  0  0  0  1  1  1  1
    0  0  0  0  0  0  0  0  0  0  0  0  0  0  0  0  0  0  0  0
    0  0  0  0  0  0  0  0  0  0  0  0  0  0  0  1  1  1  1  1
    0  0  0  0  0  0  0  0  0  0  0  0  0  0  0  0  0  0  0  0
    0  0  0  0  0  0  0  0  0  0  0  0  0  1  1  1  1  1  1  1
    0  0  0  0  0  0  0  0  0  0  0  0  0  0  0  0  0  0  0  0
    0  0  0  0  0  0  0  0  0  0  1  1  1  1  1  1  1  1  1  1
    0  0  0  0  0  0  0  0  0  0  0  0  0  0  0  0  0  0  0  0
    0  0  0  0  0  0  0  0  1  1  1  1  1  1  1  1  1  1  1  0
    0  0  0  0  0  0  0  0  0  0  0  0  0  0  0  0  0  0  0  0
    0  0  0  0  0  1  1  0  1  1  1  1  1  1  1  1  1  1  1  0
    0  0  0  0  0  0  0  0  0  0  0  0  0  0  0  0  0  0  0  0
    0  0  0  1  1  1  1  1  1  1  1  1  1  1  1  1  1  1  1  0
    0  0  0  0  0  0  0  0  0  0  0  0  0  0  0  0  0  0  0  0
    0  0  1  1  1  1  1  1  1  1  1  1  1  1  1  1  1  1  1  0
    0  0  0  0  0  0  0  0  0  0  0  0  0  0  0  0  0  0  0  0
    0  0  1  1  1  1  1  1  1  1  1  1  1  1  1  1  1  1  1  0
    0  0  0  0  0  0  0  0  0  0  0  0  0  0  0  0  0  0  1  1
    1  1  1  1  1  1  1  1  1  1  1  1  1  1  1  1  1  1  1  0
    0  0  0  0  0  0  0  0  0  0  0  0  0  0  0  0  0  0  1  1
    1  1  1  1  1  1  1  1  1  1  1  1  1  1  1  1  1  1  1  0
    0  0  0  0  0  0  0  0  0  0  0  0  0  1  1  1  1  1  1  1
    1  1  1  1  1  1  1  1  1  1  1  1  1  1  1  1  1  1  1  0
    0  0  0  0  0  0  0  0  0  1  1  1  1  1  1  1  1  1  1  1
    1  1  1  1  1  1  1  1  1  1  1  1  1  1  1  1  1  1  1  0
    0  0  0  0  0  0  0  1  1  1  1  1  1  1  1  1  1  1  1  1
    1  1  1  1  1  1  1  1  1  1  1  1  1  1  1  1  1  1  1  0
    0  0  0  0  0  1  1  1  1  1  1  1  1  1  1  1  1  1  1  1
    1  1  1  1  1  1  1  1  1  1  1  1  1  1  1  1  1  1  1  0
    0  0  0  1  1  1  1  1  1  1  1  1  1  1  1  1  1  1  1  1
    1  1  1  1  1  1  1  1  1  1  1  1  1  1  1  1  1  1  1  0
    0  0  0  0  0  0  0  0  0  0  0  0  0  1  1  1  1  1  1  1
    1  1  1  1  1  1  1  1  1  1  1  1  1  1  1  1  1  1  1  0
    0  0  0  0  0  0  0  0  0  0  0  0  0  0  0  0  1  1  1  1
    1  1  1  1  1  1  1  1  1  1  1  1  1  1  1  1  1  1  1  0
    0  0  0  0  0  0  0  0  0  0  0  0  0  0  0  0  1  1  1  1
    1  1  1  1  1  1  1  1  1  1  1  1  1  1  1  1  1  1  1  0
    0  0  0  0  0  0  0  0  0  0  0  0  0  0  0  1  1  1  1  1
    1  1  1  1  1  1  1  1  1  1  1  1  1  1  1  1  1  1  1  0
    0  0  0  0  0  0  0  0  0  0  0  0  0  0  0  0  1  1  1  1
    1  1  1  1  1  1  1  1  1  1  1  1  1  1  1  1  1  1  1  1
    0  0  0  0  0  0  0  0  0  0  0  0  0  0  0  0  0  1  1  1
    1  1  1  1  1  1  1  1  1  1  1  1  1  1  1  1  1  1  1  1
    0  0  0  0  0  0  0  0  0  0  0  0  0  0  0  0  0  0  1  1
    1  1  1  1  1  1  1  1  1  1  1  1  1  1  1  1  1  1  1  1
    0  0  0  0  0  0  0  0  0  0  0  0  0  0  0  0  0  1  1  1
    1  1  1  1  1  1  1  1  1  1  1  1  1  1  1  0  0  0  0  0
    0  0  0  0  0  0  0  0  0  0  0  0  0  0  0  1  1  1  1  1
    1  1  0  0  0  0  0  0  1  0  0  1  0  0  0  0  0  0  0  0
    0  0  0  0  0  0  0  0  0  0  0  0  0  0  0  1  1  1  1  1
    1  1  0  0  0  0  0  0  0  0  0  0  0  0  0  0  0  0  0  0
    0  0  0  0  0  0  0  0  0  0  0  0  0  0  0  0  0  1  1  1
    1  0  0  0  0  0  0  0  0  0  0  0  0  0  0  0  0  0  0  0
    0  0  0  0  0  0  0  0  0  0  0  0  0  0  0  0  0  0  0  0
    0  0  0  0  0  0  0  0  0  0  0  0  0  0  0  0  0  0  0  0
END griddata

