BEGIN options
  SAVE_FLOWS
END options

BEGIN dimensions
  MAXBOUND  27
END dimensions

BEGIN period  1
  1 8 29       0.00000000
  1 19 29       0.00000000
  1 10 29       0.00000000
  1 15 29       0.00000000
  1 24 30       0.00000000
  1 25 30       0.00000000
  1 4 30       0.00000000
  1 20 29       0.00000000
  1 11 29       0.00000000
  1 16 29       0.00000000
  1 6 30       0.00000000
  1 5 30       0.00000000
  1 22 30       0.00000000
  1 21 30       0.00000000
  1 7 30       0.00000000
  1 12 29       0.00000000
  1 2 30       0.00000000
  1 9 29       0.00000000
  1 1 30       0.00000000
  1 18 29       0.00000000
  1 1 29       0.00000000
  1 23 30       0.00000000
  1 1 28       0.00000000
  1 14 29       0.00000000
  1 3 30       0.00000000
  1 17 29       0.00000000
  1 13 29       0.00000000
END period  1

