BEGIN options
END options

BEGIN timing
  TDIS6  theis_mf6.tdis
END timing

BEGIN models
  gwf6  dis_test.nam  dis_test
END models

BEGIN exchanges
END exchanges

BEGIN solutiongroup  1
  ims6  theis_mf6.ims  dis_test
END solutiongroup  1

