BEGIN griddata
  strt  LAYERED
    INTERNAL  FACTOR  1.0
       -9997.00000000   -9997.00000000   -9997.00000000   -9997.00000000   -9997.00000000   -9997.00000000   -9997.00000000   -9997.00000000   -9997.00000000   -9997.00000000   -9997.00000000   -9997.00000000   -9997.00000000   -9997.00000000   -9997.00000000   -9997.00000000   -9997.00000000   -9997.00000000   -9997.00000000   -9997.00000000
       -9997.00000000   -9997.00000000   -9997.00000000   -9997.00000000   -9997.00000000   -9997.00000000   -9997.00000000   -9997.00000000   -9997.00000000   -9997.00000000   -9997.00000000   -9997.00000000   -9997.00000000   -9997.00000000   -9997.00000000   -9997.00000000   -9997.00000000   -9997.00000000   -9997.00000000   -9997.00000000
       -9997.00000000   -9997.00000000   -9997.00000000   -9997.00000000   -9997.00000000   -9997.00000000   -9997.00000000   -9997.00000000   -9997.00000000   -9997.00000000   -9997.00000000   -9997.00000000   -9997.00000000   -9997.00000000   -9997.00000000   -9997.00000000   -9997.00000000   -9997.00000000   -9997.00000000   -9997.00000000
       -9997.00000000   -9997.00000000   -9997.00000000   -9997.00000000   -9997.00000000   -9997.00000000   -9997.00000000   -9997.00000000   -9997.00000000   -9997.00000000   -9997.00000000   -9997.00000000   -9997.00000000   -9997.00000000   -9997.00000000   -9997.00000000   -9997.00000000   -9997.00000000   -9997.00000000   -9997.00000000
       -9997.00000000   -9997.00000000   -9997.00000000   -9997.00000000   -9997.00000000   -9997.00000000   -9997.00000000   -9997.00000000   -9997.00000000   -9997.00000000   -9997.00000000   -9997.00000000   -9997.00000000   -9997.00000000   -9997.00000000   -9997.00000000   -9997.00000000   -9997.00000000   -9997.00000000   -9997.00000000
       -9997.00000000   -9997.00000000   -9997.00000000   -9997.00000000   -9997.00000000   -9997.00000000   -9997.00000000   -9997.00000000   -9997.00000000   -9997.00000000   -9997.00000000   -9997.00000000   -9997.00000000   -9997.00000000   -9997.00000000   -9997.00000000   -9997.00000000   -9997.00000000   -9997.00000000   -9997.00000000
       -9997.00000000   -9997.00000000   -9997.00000000   -9997.00000000   -9997.00000000   -9997.00000000   -9997.00000000   -9997.00000000   -9997.00000000   -9997.00000000   -9997.00000000   -9997.00000000   -9997.00000000   -9997.00000000   -9997.00000000   -9997.00000000   -9997.00000000   -9997.00000000   -9997.00000000   -9997.00000000
       -9997.00000000   -9997.00000000   -9997.00000000   -9997.00000000   -9997.00000000   -9997.00000000   -9997.00000000   -9997.00000000   -9997.00000000   -9997.00000000
       -9997.00000000   -9997.00000000   -9997.00000000   -9997.00000000   -9997.00000000   -9997.00000000   -9997.00000000   -9997.00000000   -9997.00000000   -9997.00000000   -9997.00000000   -9997.00000000   -9997.00000000   -9997.00000000   -9997.00000000   -9997.00000000   -9997.00000000   -9997.00000000   -9997.00000000   -9997.00000000
       -9997.00000000   -9997.00000000   -9997.00000000   -9997.00000000   -9997.00000000   -9997.00000000   -9997.00000000   -9997.00000000   -9997.00000000   -9997.00000000   -9997.00000000   -9997.00000000   -9997.00000000   -9997.00000000   -9997.00000000   -9997.00000000   -9997.00000000   -9997.00000000   -9997.00000000   -9997.00000000
       -9997.00000000   -9997.00000000   -9997.00000000   -9997.00000000   -9997.00000000   -9997.00000000   -9997.00000000   -9997.00000000   -9997.00000000   -9997.00000000   -9997.00000000   -9997.00000000   -9997.00000000   -9997.00000000   -9997.00000000   -9997.00000000   -9997.00000000   -9997.00000000   -9997.00000000   -9997.00000000
       -9997.00000000   -9997.00000000   -9997.00000000   -9997.00000000   -9997.00000000   -9997.00000000   -9997.00000000   -9997.00000000   -9997.00000000   -9997.00000000   -9997.00000000   -9997.00000000   -9997.00000000   -9997.00000000   -9997.00000000   -9997.00000000   -9997.00000000   -9997.00000000   -9997.00000000   -9997.00000000
       -9997.00000000   -9997.00000000   -9997.00000000   -9997.00000000   -9997.00000000   -9997.00000000   -9997.00000000   -9997.00000000   -9997.00000000   -9997.00000000   -9997.00000000   -9997.00000000   -9997.00000000   -9997.00000000   -9997.00000000   -9997.00000000   -9997.00000000   -9997.00000000   -9997.00000000   -9997.00000000
       -9997.00000000   -9997.00000000   -9997.00000000   -9997.00000000   -9997.00000000   -9997.00000000   -9997.00000000   -9997.00000000   -9997.00000000   -9997.00000000   -9997.00000000   -9997.00000000   -9997.00000000   -9997.00000000   -9997.00000000   -9997.00000000   -9997.00000000   -9997.00000000   -9997.00000000   -9997.00000000
       -9997.00000000   -9997.00000000   -9997.00000000   -9997.00000000   -9997.00000000   -9997.00000000   -9997.00000000   -9997.00000000   -9997.00000000   -9997.00000000   -9997.00000000   -9997.00000000   -9997.00000000   -9997.00000000   -9997.00000000   -9997.00000000   -9997.00000000   -9997.00000000   -9997.00000000   -9997.00000000
       -9997.00000000   -9997.00000000   -9997.00000000   -9997.00000000   -9997.00000000   -9997.00000000   -9997.00000000   -9997.00000000   -9997.00000000   -9997.00000000
       -9997.00000000   -9997.00000000   -9997.00000000   -9997.00000000   -9997.00000000   -9997.00000000   -9997.00000000   -9997.00000000   -9997.00000000   -9997.00000000   -9997.00000000   -9997.00000000   -9997.00000000   -9997.00000000   -9997.00000000   -9997.00000000   -9997.00000000   -9997.00000000   -9997.00000000   -9997.00000000
       -9997.00000000   -9997.00000000   -9997.00000000   -9997.00000000   -9997.00000000   -9997.00000000   -9997.00000000   -9997.00000000   -9997.00000000   -9997.00000000   -9997.00000000   -9997.00000000   -9997.00000000   -9997.00000000   -9997.00000000   -9997.00000000   -9997.00000000   -9997.00000000   -9997.00000000   -9997.00000000
       -9997.00000000   -9997.00000000   -9997.00000000   -9997.00000000   -9997.00000000   -9997.00000000   -9997.00000000   -9997.00000000   -9997.00000000   -9997.00000000   -9997.00000000   -9997.00000000   -9997.00000000   -9997.00000000   -9997.00000000   -9997.00000000   -9997.00000000   -9997.00000000   -9997.00000000   -9997.00000000
       -9997.00000000   -9997.00000000   -9997.00000000   -9997.00000000   -9997.00000000   -9997.00000000   -9997.00000000   -9997.00000000   -9997.00000000   -9997.00000000   -9997.00000000   -9997.00000000   -9997.00000000   -9997.00000000   -9997.00000000   -9997.00000000   -9997.00000000   -9997.00000000   -9997.00000000   -9997.00000000
       -9997.00000000   -9997.00000000   -9997.00000000   -9997.00000000   -9997.00000000   -9997.00000000   -9997.00000000   -9997.00000000   -9997.00000000   -9997.00000000   -9997.00000000   -9997.00000000   -9997.00000000   -9997.00000000   -9997.00000000   -9997.00000000   -9997.00000000   -9997.00000000   -9997.00000000   -9997.00000000
       -9997.00000000   -9997.00000000   -9997.00000000   -9997.00000000   -9997.00000000   -9997.00000000   -9997.00000000   -9997.00000000   -9997.00000000   -9997.00000000   -9997.00000000   -9997.00000000   -9997.00000000   -9997.00000000   -9997.00000000   -9997.00000000   -9997.00000000   -9997.00000000   -9997.00000000   -9997.00000000
       -9997.00000000   -9997.00000000   -9997.00000000   -9997.00000000   -9997.00000000   -9997.00000000   -9997.00000000   -9997.00000000   -9997.00000000   -9997.00000000   -9997.00000000   -9997.00000000   -9997.00000000   -9997.00000000   -9997.00000000   -9997.00000000   -9997.00000000   -9997.00000000   -9997.00000000   -9997.00000000
       -9997.00000000   -9997.00000000   -9997.00000000   -9997.00000000   -9997.00000000   -9997.00000000   -9997.00000000   -9997.00000000   -9997.00000000   -9997.00000000
       -9997.00000000   -9997.00000000   -9997.00000000   -9997.00000000   -9997.00000000   -9997.00000000   -9997.00000000   -9997.00000000   -9997.00000000   -9997.00000000   -9997.00000000   -9997.00000000   -9997.00000000   -9997.00000000   -9997.00000000   -9997.00000000   -9997.00000000   -9997.00000000   -9997.00000000   -9997.00000000
       -9997.00000000   -9997.00000000   -9997.00000000   -9997.00000000   -9997.00000000   -9997.00000000   -9997.00000000   -9997.00000000   -9997.00000000   -9997.00000000   -9997.00000000   -9997.00000000   -9997.00000000   -9997.00000000   -9997.00000000   -9997.00000000   -9997.00000000   -9997.00000000   -9997.00000000   -9997.00000000
       -9997.00000000   -9997.00000000   -9997.00000000   -9997.00000000   -9997.00000000   -9997.00000000   -9997.00000000   -9997.00000000   -9997.00000000   -9997.00000000   -9997.00000000   -9997.00000000   -9997.00000000   -9997.00000000   -9997.00000000   -9997.00000000   -9997.00000000   -9997.00000000   -9997.00000000   -9997.00000000
       -9997.00000000   -9997.00000000   -9997.00000000   -9997.00000000   -9997.00000000   -9997.00000000   -9997.00000000   -9997.00000000   -9997.00000000   -9997.00000000   -9997.00000000   -9997.00000000   -9997.00000000   -9997.00000000   -9997.00000000   -9997.00000000   -9997.00000000   -9997.00000000   -9997.00000000   -9997.00000000
       -9997.00000000   -9997.00000000   -9997.00000000   -9997.00000000   -9997.00000000   -9997.00000000   -9997.00000000   -9997.00000000   -9997.00000000   -9997.00000000   -9997.00000000   -9997.00000000   -9997.00000000   -9997.00000000   -9997.00000000   -9997.00000000   -9997.00000000   -9997.00000000   -9997.00000000   -9997.00000000
       -9997.00000000   -9997.00000000   -9997.00000000   -9997.00000000   -9997.00000000   -9997.00000000   -9997.00000000   -9997.00000000   -9997.00000000   -9997.00000000   -9997.00000000   -9997.00000000   -9997.00000000   -9997.00000000   -9997.00000000   -9997.00000000   -9997.00000000   -9997.00000000   -9997.00000000   -9997.00000000
       -9997.00000000   -9997.00000000   -9997.00000000   -9997.00000000   -9997.00000000   -9997.00000000   -9997.00000000   -9997.00000000   -9997.00000000   -9997.00000000   -9997.00000000   -9997.00000000   -9997.00000000   -9997.00000000   -9997.00000000   -9997.00000000   -9997.00000000   -9997.00000000   -9997.00000000   -9997.00000000
       -9997.00000000   -9997.00000000   -9997.00000000   -9997.00000000   -9997.00000000   -9997.00000000   -9997.00000000   -9997.00000000   -9997.00000000   -9997.00000000
       -9997.00000000   -9997.00000000   -9997.00000000   -9997.00000000   -9997.00000000   -9997.00000000   -9997.00000000   -9997.00000000   -9997.00000000   -9997.00000000   -9997.00000000   -9997.00000000   -9997.00000000   -9997.00000000   -9997.00000000   -9997.00000000   -9997.00000000   -9997.00000000   -9997.00000000   -9997.00000000
       -9997.00000000   -9997.00000000   -9997.00000000   -9997.00000000   -9997.00000000   -9997.00000000   -9997.00000000   -9997.00000000   -9997.00000000   -9997.00000000   -9997.00000000   -9997.00000000   -9997.00000000   -9997.00000000   -9997.00000000   -9997.00000000   -9997.00000000   -9997.00000000   -9997.00000000   -9997.00000000
       -9997.00000000   -9997.00000000   -9997.00000000   -9997.00000000   -9997.00000000   -9997.00000000   -9997.00000000   -9997.00000000   -9997.00000000   -9997.00000000   -9997.00000000   -9997.00000000   -9997.00000000   -9997.00000000   -9997.00000000   -9997.00000000   -9997.00000000   -9997.00000000   -9997.00000000   -9997.00000000
       -9997.00000000   -9997.00000000   -9997.00000000   -9997.00000000   -9997.00000000   -9997.00000000   -9997.00000000   -9997.00000000   -9997.00000000   -9997.00000000   -9997.00000000   -9997.00000000   -9997.00000000   -9997.00000000   -9997.00000000   -9997.00000000   -9997.00000000   -9997.00000000   -9997.00000000   -9997.00000000
       -9997.00000000   -9997.00000000   -9997.00000000   -9997.00000000   -9997.00000000   -9997.00000000   -9997.00000000   -9997.00000000   -9997.00000000   -9997.00000000   -9997.00000000   -9997.00000000   -9997.00000000   -9997.00000000   -9997.00000000   -9997.00000000   -9997.00000000   -9997.00000000   -9997.00000000   -9997.00000000
       -9997.00000000   -9997.00000000   -9997.00000000   -9997.00000000   -9997.00000000   -9997.00000000   -9997.00000000   -9997.00000000   -9997.00000000   -9997.00000000   -9997.00000000   -9997.00000000   -9997.00000000   -9997.00000000   -9997.00000000   -9997.00000000   -9997.00000000   -9997.00000000   -9997.00000000   -9997.00000000
       -9997.00000000   -9997.00000000   -9997.00000000   -9997.00000000   -9997.00000000   -9997.00000000   -9997.00000000   -9997.00000000   -9997.00000000   -9997.00000000   -9997.00000000   -9997.00000000   -9997.00000000   -9997.00000000   -9997.00000000   -9997.00000000   -9997.00000000   -9997.00000000   -9997.00000000   -9997.00000000
       -9997.00000000   -9997.00000000   -9997.00000000   -9997.00000000      -9.00000000   -9997.00000000   -9997.00000000   -9997.00000000   -9997.00000000   -9997.00000000
       -9997.00000000   -9997.00000000   -9997.00000000   -9997.00000000   -9997.00000000   -9997.00000000   -9997.00000000   -9997.00000000   -9997.00000000   -9997.00000000   -9997.00000000   -9997.00000000   -9997.00000000   -9997.00000000   -9997.00000000   -9997.00000000   -9997.00000000   -9997.00000000   -9997.00000000   -9997.00000000
       -9997.00000000   -9997.00000000   -9997.00000000   -9997.00000000   -9997.00000000   -9997.00000000   -9997.00000000   -9997.00000000   -9997.00000000   -9997.00000000   -9997.00000000   -9997.00000000   -9997.00000000   -9997.00000000   -9997.00000000   -9997.00000000   -9997.00000000   -9997.00000000   -9997.00000000   -9997.00000000
       -9997.00000000   -9997.00000000   -9997.00000000   -9997.00000000   -9997.00000000   -9997.00000000   -9997.00000000   -9997.00000000   -9997.00000000   -9997.00000000   -9997.00000000   -9997.00000000   -9997.00000000   -9997.00000000   -9997.00000000   -9997.00000000   -9997.00000000   -9997.00000000   -9997.00000000   -9997.00000000
       -9997.00000000   -9997.00000000   -9997.00000000   -9997.00000000   -9997.00000000   -9997.00000000   -9997.00000000   -9997.00000000   -9997.00000000   -9997.00000000   -9997.00000000   -9997.00000000   -9997.00000000   -9997.00000000   -9997.00000000   -9997.00000000   -9997.00000000   -9997.00000000   -9997.00000000   -9997.00000000
       -9997.00000000   -9997.00000000   -9997.00000000   -9997.00000000   -9997.00000000   -9997.00000000   -9997.00000000   -9997.00000000   -9997.00000000   -9997.00000000   -9997.00000000   -9997.00000000   -9997.00000000   -9997.00000000   -9997.00000000   -9997.00000000   -9997.00000000   -9997.00000000   -9997.00000000   -9997.00000000
       -9997.00000000   -9997.00000000   -9997.00000000   -9997.00000000   -9997.00000000   -9997.00000000   -9997.00000000   -9997.00000000   -9997.00000000   -9997.00000000   -9997.00000000   -9997.00000000   -9997.00000000   -9997.00000000   -9997.00000000   -9997.00000000   -9997.00000000   -9997.00000000   -9997.00000000   -9997.00000000
       -9997.00000000   -9997.00000000   -9997.00000000   -9997.00000000   -9997.00000000   -9997.00000000   -9997.00000000   -9997.00000000   -9997.00000000   -9997.00000000   -9997.00000000   -9997.00000000   -9997.00000000   -9997.00000000   -9997.00000000   -9997.00000000   -9997.00000000   -9997.00000000   -9997.00000000   -9997.00000000
       -9997.00000000   -9997.00000000   -9997.00000000    -114.07679749      25.33000183      -8.77000046      -9.00000000   -9997.00000000   -9997.00000000   -9997.00000000
       -9997.00000000   -9997.00000000   -9997.00000000   -9997.00000000   -9997.00000000   -9997.00000000   -9997.00000000   -9997.00000000   -9997.00000000   -9997.00000000   -9997.00000000   -9997.00000000   -9997.00000000   -9997.00000000   -9997.00000000   -9997.00000000   -9997.00000000   -9997.00000000   -9997.00000000   -9997.00000000
       -9997.00000000   -9997.00000000   -9997.00000000   -9997.00000000   -9997.00000000   -9997.00000000   -9997.00000000   -9997.00000000   -9997.00000000   -9997.00000000   -9997.00000000   -9997.00000000   -9997.00000000   -9997.00000000   -9997.00000000   -9997.00000000   -9997.00000000   -9997.00000000   -9997.00000000   -9997.00000000
       -9997.00000000   -9997.00000000   -9997.00000000   -9997.00000000   -9997.00000000   -9997.00000000   -9997.00000000   -9997.00000000   -9997.00000000   -9997.00000000   -9997.00000000   -9997.00000000   -9997.00000000   -9997.00000000   -9997.00000000   -9997.00000000   -9997.00000000   -9997.00000000   -9997.00000000   -9997.00000000
       -9997.00000000   -9997.00000000   -9997.00000000   -9997.00000000   -9997.00000000   -9997.00000000   -9997.00000000   -9997.00000000   -9997.00000000   -9997.00000000   -9997.00000000   -9997.00000000   -9997.00000000   -9997.00000000   -9997.00000000   -9997.00000000   -9997.00000000   -9997.00000000   -9997.00000000   -9997.00000000
       -9997.00000000   -9997.00000000   -9997.00000000   -9997.00000000   -9997.00000000   -9997.00000000   -9997.00000000   -9997.00000000   -9997.00000000   -9997.00000000   -9997.00000000   -9997.00000000   -9997.00000000   -9997.00000000   -9997.00000000   -9997.00000000   -9997.00000000   -9997.00000000   -9997.00000000   -9997.00000000
       -9997.00000000   -9997.00000000   -9997.00000000   -9997.00000000   -9997.00000000   -9997.00000000   -9997.00000000   -9997.00000000   -9997.00000000   -9997.00000000   -9997.00000000   -9997.00000000   -9997.00000000   -9997.00000000   -9997.00000000   -9997.00000000   -9997.00000000   -9997.00000000   -9997.00000000   -9997.00000000
       -9997.00000000   -9997.00000000   -9997.00000000   -9997.00000000   -9997.00000000   -9997.00000000   -9997.00000000   -9997.00000000   -9997.00000000   -9997.00000000   -9997.00000000   -9997.00000000   -9997.00000000   -9997.00000000   -9997.00000000   -9997.00000000   -9997.00000000   -9997.00000000   -9997.00000000   -9997.00000000
       -9997.00000000   -9997.00000000      46.50000000    -110.46019745    -109.60050201    -108.31369781      41.65000153      16.96999931      -9.00000000   -9997.00000000
       -9997.00000000   -9997.00000000   -9997.00000000   -9997.00000000   -9997.00000000   -9997.00000000   -9997.00000000   -9997.00000000   -9997.00000000   -9997.00000000   -9997.00000000   -9997.00000000   -9997.00000000   -9997.00000000   -9997.00000000   -9997.00000000   -9997.00000000   -9997.00000000   -9997.00000000   -9997.00000000
       -9997.00000000   -9997.00000000   -9997.00000000   -9997.00000000   -9997.00000000   -9997.00000000   -9997.00000000   -9997.00000000   -9997.00000000   -9997.00000000   -9997.00000000   -9997.00000000   -9997.00000000   -9997.00000000   -9997.00000000   -9997.00000000   -9997.00000000   -9997.00000000   -9997.00000000   -9997.00000000
       -9997.00000000   -9997.00000000   -9997.00000000   -9997.00000000   -9997.00000000   -9997.00000000   -9997.00000000   -9997.00000000   -9997.00000000   -9997.00000000   -9997.00000000   -9997.00000000   -9997.00000000   -9997.00000000   -9997.00000000   -9997.00000000   -9997.00000000   -9997.00000000   -9997.00000000   -9997.00000000
       -9997.00000000   -9997.00000000   -9997.00000000   -9997.00000000   -9997.00000000   -9997.00000000   -9997.00000000   -9997.00000000   -9997.00000000   -9997.00000000   -9997.00000000   -9997.00000000   -9997.00000000   -9997.00000000   -9997.00000000   -9997.00000000   -9997.00000000   -9997.00000000   -9997.00000000   -9997.00000000
       -9997.00000000   -9997.00000000   -9997.00000000   -9997.00000000   -9997.00000000   -9997.00000000   -9997.00000000   -9997.00000000   -9997.00000000   -9997.00000000   -9997.00000000   -9997.00000000   -9997.00000000   -9997.00000000   -9997.00000000   -9997.00000000   -9997.00000000   -9997.00000000   -9997.00000000   -9997.00000000
       -9997.00000000   -9997.00000000   -9997.00000000   -9997.00000000   -9997.00000000   -9997.00000000   -9997.00000000   -9997.00000000   -9997.00000000   -9997.00000000   -9997.00000000   -9997.00000000   -9997.00000000   -9997.00000000   -9997.00000000   -9997.00000000   -9997.00000000   -9997.00000000   -9997.00000000   -9997.00000000
       -9997.00000000   -9997.00000000   -9997.00000000   -9997.00000000   -9997.00000000   -9997.00000000   -9997.00000000   -9997.00000000   -9997.00000000   -9997.00000000   -9997.00000000   -9997.00000000   -9997.00000000   -9997.00000000   -9997.00000000   -9997.00000000   -9997.00000000   -9997.00000000   -9997.00000000   -9997.00000000
          49.96609879    -108.20970154    -107.52189636      50.00000000    -105.35340118    -102.70330048     -98.22160339     -91.54406738      -9.00000000     -78.03816223
       -9997.00000000   -9997.00000000   -9997.00000000   -9997.00000000   -9997.00000000   -9997.00000000   -9997.00000000   -9997.00000000   -9997.00000000   -9997.00000000   -9997.00000000   -9997.00000000   -9997.00000000   -9997.00000000   -9997.00000000   -9997.00000000   -9997.00000000   -9997.00000000   -9997.00000000   -9997.00000000
       -9997.00000000   -9997.00000000   -9997.00000000   -9997.00000000   -9997.00000000   -9997.00000000   -9997.00000000   -9997.00000000   -9997.00000000   -9997.00000000   -9997.00000000   -9997.00000000   -9997.00000000   -9997.00000000   -9997.00000000   -9997.00000000   -9997.00000000   -9997.00000000   -9997.00000000   -9997.00000000
       -9997.00000000   -9997.00000000   -9997.00000000   -9997.00000000   -9997.00000000   -9997.00000000   -9997.00000000   -9997.00000000   -9997.00000000   -9997.00000000   -9997.00000000   -9997.00000000   -9997.00000000   -9997.00000000   -9997.00000000   -9997.00000000   -9997.00000000   -9997.00000000   -9997.00000000   -9997.00000000
       -9997.00000000   -9997.00000000   -9997.00000000   -9997.00000000   -9997.00000000   -9997.00000000   -9997.00000000   -9997.00000000   -9997.00000000   -9997.00000000   -9997.00000000   -9997.00000000   -9997.00000000   -9997.00000000   -9997.00000000   -9997.00000000   -9997.00000000   -9997.00000000   -9997.00000000   -9997.00000000
       -9997.00000000   -9997.00000000   -9997.00000000   -9997.00000000   -9997.00000000   -9997.00000000   -9997.00000000   -9997.00000000   -9997.00000000   -9997.00000000   -9997.00000000   -9997.00000000   -9997.00000000   -9997.00000000   -9997.00000000   -9997.00000000   -9997.00000000   -9997.00000000   -9997.00000000   -9997.00000000
       -9997.00000000   -9997.00000000   -9997.00000000   -9997.00000000   -9997.00000000   -9997.00000000   -9997.00000000   -9997.00000000   -9997.00000000   -9997.00000000   -9997.00000000   -9997.00000000   -9997.00000000   -9997.00000000   -9997.00000000   -9997.00000000   -9997.00000000   -9997.00000000   -9997.00000000   -9997.00000000
       -9997.00000000   -9997.00000000   -9997.00000000   -9997.00000000   -9997.00000000   -9997.00000000   -9997.00000000   -9997.00000000   -9997.00000000   -9997.00000000   -9997.00000000   -9997.00000000   -9997.00000000   -9997.00000000   -9997.00000000   -9997.00000000   -9997.00000000   -9997.00000000   -9997.00000000    -105.87830353
        -105.28520203    -104.59369659    -103.72010040    -102.41690063      47.50000000     -93.73973083     -88.61633301     -81.81440735      27.93000031      -9.00000000
       -9997.00000000   -9997.00000000   -9997.00000000   -9997.00000000   -9997.00000000   -9997.00000000   -9997.00000000   -9997.00000000   -9997.00000000   -9997.00000000   -9997.00000000   -9997.00000000   -9997.00000000   -9997.00000000   -9997.00000000   -9997.00000000   -9997.00000000   -9997.00000000   -9997.00000000   -9997.00000000
       -9997.00000000   -9997.00000000   -9997.00000000   -9997.00000000   -9997.00000000   -9997.00000000   -9997.00000000   -9997.00000000   -9997.00000000   -9997.00000000   -9997.00000000   -9997.00000000   -9997.00000000   -9997.00000000   -9997.00000000   -9997.00000000   -9997.00000000   -9997.00000000   -9997.00000000   -9997.00000000
       -9997.00000000   -9997.00000000   -9997.00000000   -9997.00000000   -9997.00000000   -9997.00000000   -9997.00000000   -9997.00000000   -9997.00000000   -9997.00000000   -9997.00000000   -9997.00000000   -9997.00000000   -9997.00000000   -9997.00000000   -9997.00000000   -9997.00000000   -9997.00000000   -9997.00000000   -9997.00000000
       -9997.00000000   -9997.00000000   -9997.00000000   -9997.00000000   -9997.00000000   -9997.00000000   -9997.00000000   -9997.00000000   -9997.00000000   -9997.00000000   -9997.00000000   -9997.00000000   -9997.00000000   -9997.00000000   -9997.00000000   -9997.00000000   -9997.00000000   -9997.00000000   -9997.00000000   -9997.00000000
       -9997.00000000   -9997.00000000   -9997.00000000   -9997.00000000   -9997.00000000   -9997.00000000   -9997.00000000   -9997.00000000   -9997.00000000   -9997.00000000   -9997.00000000   -9997.00000000   -9997.00000000   -9997.00000000   -9997.00000000   -9997.00000000   -9997.00000000   -9997.00000000   -9997.00000000   -9997.00000000
       -9997.00000000   -9997.00000000   -9997.00000000   -9997.00000000   -9997.00000000   -9997.00000000   -9997.00000000   -9997.00000000   -9997.00000000   -9997.00000000   -9997.00000000   -9997.00000000   -9997.00000000   -9997.00000000   -9997.00000000   -9997.00000000   -9997.00000000   -9997.00000000   -9997.00000000   -9997.00000000
       -9997.00000000   -9997.00000000   -9997.00000000   -9997.00000000   -9997.00000000   -9997.00000000   -9997.00000000   -9997.00000000   -9997.00000000   -9997.00000000   -9997.00000000   -9997.00000000   -9997.00000000   -9997.00000000   -9997.00000000   -9997.00000000   -9997.00000000   -9997.00000000   -9997.00000000    -102.36959839
        -101.67859650    -100.80619812     -99.50610352     -96.89526367     -90.89761353     -84.17356873     -78.95307159     -71.97165680     -64.69940186      32.13000107
       -9997.00000000   -9997.00000000   -9997.00000000   -9997.00000000   -9997.00000000   -9997.00000000   -9997.00000000   -9997.00000000   -9997.00000000   -9997.00000000   -9997.00000000   -9997.00000000   -9997.00000000   -9997.00000000   -9997.00000000   -9997.00000000   -9997.00000000   -9997.00000000   -9997.00000000   -9997.00000000
       -9997.00000000   -9997.00000000   -9997.00000000   -9997.00000000   -9997.00000000   -9997.00000000   -9997.00000000   -9997.00000000   -9997.00000000   -9997.00000000   -9997.00000000   -9997.00000000   -9997.00000000   -9997.00000000   -9997.00000000   -9997.00000000   -9997.00000000   -9997.00000000   -9997.00000000   -9997.00000000
       -9997.00000000   -9997.00000000   -9997.00000000   -9997.00000000   -9997.00000000   -9997.00000000   -9997.00000000   -9997.00000000   -9997.00000000   -9997.00000000   -9997.00000000   -9997.00000000   -9997.00000000   -9997.00000000   -9997.00000000   -9997.00000000   -9997.00000000   -9997.00000000   -9997.00000000   -9997.00000000
       -9997.00000000   -9997.00000000   -9997.00000000   -9997.00000000   -9997.00000000   -9997.00000000   -9997.00000000   -9997.00000000   -9997.00000000   -9997.00000000   -9997.00000000   -9997.00000000   -9997.00000000   -9997.00000000   -9997.00000000   -9997.00000000   -9997.00000000   -9997.00000000   -9997.00000000   -9997.00000000
       -9997.00000000   -9997.00000000   -9997.00000000   -9997.00000000   -9997.00000000   -9997.00000000   -9997.00000000   -9997.00000000   -9997.00000000   -9997.00000000   -9997.00000000   -9997.00000000   -9997.00000000   -9997.00000000   -9997.00000000   -9997.00000000   -9997.00000000   -9997.00000000   -9997.00000000   -9997.00000000
       -9997.00000000   -9997.00000000   -9997.00000000   -9997.00000000   -9997.00000000   -9997.00000000   -9997.00000000   -9997.00000000   -9997.00000000   -9997.00000000   -9997.00000000   -9997.00000000   -9997.00000000   -9997.00000000   -9997.00000000   -9997.00000000   -9997.00000000   -9997.00000000   -9997.00000000   -9997.00000000
       -9997.00000000   -9997.00000000   -9997.00000000   -9997.00000000   -9997.00000000   -9997.00000000   -9997.00000000   -9997.00000000   -9997.00000000   -9997.00000000   -9997.00000000   -9997.00000000   -9997.00000000   -9997.00000000   -9997.00000000   -9997.00000000   -9997.00000000   -9997.00000000   -9997.00000000     -98.77809906
         -97.91249847     -96.62451172     -94.04029846      43.00000000     -81.40660095     -74.62341309     -69.28341675     -62.07897186     -54.30546188       5.85000038
       -9997.00000000   -9997.00000000   -9997.00000000   -9997.00000000   -9997.00000000   -9997.00000000   -9997.00000000   -9997.00000000   -9997.00000000   -9997.00000000   -9997.00000000   -9997.00000000   -9997.00000000   -9997.00000000   -9997.00000000   -9997.00000000   -9997.00000000   -9997.00000000   -9997.00000000   -9997.00000000
       -9997.00000000   -9997.00000000   -9997.00000000   -9997.00000000   -9997.00000000   -9997.00000000   -9997.00000000   -9997.00000000   -9997.00000000   -9997.00000000   -9997.00000000   -9997.00000000   -9997.00000000   -9997.00000000   -9997.00000000   -9997.00000000   -9997.00000000   -9997.00000000   -9997.00000000   -9997.00000000
       -9997.00000000   -9997.00000000   -9997.00000000   -9997.00000000   -9997.00000000   -9997.00000000   -9997.00000000   -9997.00000000   -9997.00000000   -9997.00000000   -9997.00000000   -9997.00000000   -9997.00000000   -9997.00000000   -9997.00000000   -9997.00000000   -9997.00000000   -9997.00000000   -9997.00000000   -9997.00000000
       -9997.00000000   -9997.00000000   -9997.00000000   -9997.00000000   -9997.00000000   -9997.00000000   -9997.00000000   -9997.00000000   -9997.00000000   -9997.00000000   -9997.00000000   -9997.00000000   -9997.00000000   -9997.00000000   -9997.00000000   -9997.00000000   -9997.00000000   -9997.00000000   -9997.00000000   -9997.00000000