BEGIN options
END options

BEGIN dimensions
  MAXBOUND  9105
END dimensions

BEGIN period  1
  1 29 129       9.39000034       0.01000000
  1 29 130      -0.63000000       0.01000000
  1 30 127       9.89000034       0.01000000
  1 30 128      -0.69999999       0.01000000
  1 30 129      -0.69999999       0.01000000
  1 31 125      22.38999939       0.01000000
  1 31 126       3.51000023       0.01000000
  1 32 122       5.84000015       0.01000000
  1 32 123       2.52999997       0.01000000
  1 32 124       0.63000000       0.01000000
  1 32 125      -0.25000000       0.01000000
  1 32 126      -0.72999999       0.01000000
  1 33 121       3.75000000       0.01000000
  1 33 122      -0.69000000       0.01000000
  1 33 123      -0.44999999       0.01000000
  1 33 124      -0.93000000       0.01000000
  1 33 125      -0.72999999       0.01000000
  1 34 121       0.41999996       0.01000000
  1 34 122      -0.80000000       0.01000000
  1 34 123      -0.80000000       0.01000000
  1 35 113      20.45000076       0.01000000
  1 35 114      13.97000027       0.01000000
  1 35 115      11.89000034       0.01000000
  1 35 116       4.80000019       0.01000000
  1 35 117       0.23000002       0.01000000
  1 35 118       1.81999993       0.01000000
  1 35 119       3.57000017       0.01000000
  1 35 120       2.57999992       0.01000000
  1 35 121      -0.43000001       0.01000000
  1 35 122      -0.66000000       0.01000000
  1 36 113      16.28000069       0.01000000
  1 36 114      10.64000034       0.01000000
  1 36 115       5.57000017       0.01000000
  1 36 116       2.07999992       0.01000000
  1 36 117       0.13999999       0.01000000
  1 36 118       0.22000003       0.01000000
  1 36 119      -0.33999997       0.01000000
  1 36 120      -0.63000000       0.01000000
  1 36 121      -0.83000000       0.01000000
  1 37 111      33.97999954       0.01000000
  1 37 112      26.20000076       0.01000000
  1 37 113      11.81999969       0.01000000
  1 37 114       8.46000004       0.01000000
  1 37 115       3.36000013       0.01000000
  1 37 116       0.50999999       0.01000000
  1 37 117      -0.00999999       0.01000000
  1 37 118      -0.69000000       0.01000000
  1 37 119      -0.36000001       0.01000000
  1 37 120      -0.43000001       0.01000000
  1 37 121      -0.83000000       0.01000000
  1 37 142      -0.19999999       0.01000000
  1 38 111      25.80999947       0.01000000
  1 38 112      16.29999924       0.01000000
  1 38 113       4.38000011       0.01000000
  1 38 114       2.89000010       0.01000000
  1 38 115       2.17000008       0.01000000
  1 38 116      -0.12000000       0.01000000
  1 38 117      -0.81999999       0.01000000
  1 38 118      -0.72000000       0.01000000
  1 38 119      -0.77000000       0.01000000
  1 38 120      -0.98000000       0.01000000
  1 38 121      -0.59999999       0.01000000
  1 38 141      -0.66000000       0.01000000
  1 38 142       0.12000000       0.01000000
  1 38 144      -0.36000001       0.01000000
  1 39 110      33.95999908       0.01000000
  1 39 111      17.04000092       0.01000000
  1 39 112       9.73999977       0.01000000
  1 39 113       3.40000010       0.01000000
  1 39 114      -0.31999999       0.01000000
  1 39 115      -0.25000000       0.01000000
  1 39 116      -0.91000000       0.01000000
  1 39 117      -0.93000000       0.01000000
  1 39 118      -1.07000000       0.01000000
  1 39 119      -0.93000000       0.01000000
  1 39 120      -1.02000000       0.01000000
  1 39 140       0.98000002       0.01000000
  1 39 141       1.20000005       0.01000000
  1 39 142      -0.12000000       0.01000000
  1 39 143       0.11000001       0.01000000
  1 39 144       0.58000004       0.01000000
  1 39 145       1.89000010       0.01000000
  1 40 110      21.73999977       0.01000000
  1 40 111      11.50000000       0.01000000
  1 40 112       7.68000031       0.01000000
  1 40 113      -0.01999998       0.01000000
  1 40 114      -0.31999999       0.01000000
  1 40 115      -0.36000001       0.01000000
  1 40 116      -0.66999999       0.01000000
  1 40 117      -1.07000000       0.01000000
  1 40 118      -1.10000000       0.01000000
  1 40 119      -0.80000000       0.01000000
  1 40 120      -0.80000000       0.01000000
  1 40 142      -0.19000000       0.01000000
  1 40 144       0.27999997       0.01000000
  1 41 107      49.56000137       0.01000000
  1 41 108      57.18000031       0.01000000
  1 41 109      28.81999969       0.01000000
  1 41 110      21.09000015       0.01000000
  1 41 111      10.89999962       0.01000000
  1 41 112       4.82000017       0.01000000
  1 41 113       0.46000004       0.01000000
  1 41 114       0.28999996       0.01000000
  1 41 115      -0.32999998       0.01000000
  1 41 116      -0.59999999       0.01000000
  1 41 117      -0.63999999       0.01000000
  1 41 118      -1.07000000       0.01000000
  1 41 119      -1.02000000       0.01000000
  1 41 122      -0.93000000       0.01000000
  1 41 123      -0.43000001       0.01000000
  1 41 144       0.51999998       0.01000000
  1 41 146      -1.00000000       0.01000000
  1 42 101      68.93000031       0.01000000
  1 42 102      70.69999695       0.01000000
  1 42 106      62.50000000       0.01000000
  1 42 107      37.34000015       0.01000000
  1 42 108      30.10000038       0.01000000
  1 42 109      20.37000084       0.01000000
  1 42 110      16.39999962       0.01000000
  1 42 111      10.39999962       0.01000000
  1 42 112       7.10000038       0.01000000
  1 42 113       6.46000004       0.01000000
  1 42 114       1.54999995       0.01000000
  1 42 115       0.96000004       0.01000000
  1 42 116       3.51000023       0.01000000
  1 42 117       0.37000000       0.01000000
  1 42 118      -0.45999998       0.01000000
  1 42 119      -0.48000002       0.01000000
  1 42 120       0.12000000       0.01000000
  1 42 121      -0.39999998       0.01000000
  1 42 122      -0.56999999       0.01000000
  1 42 123      -0.89000000       0.01000000
  1 42 143       0.20000005       0.01000000
  1 42 144       1.99000001       0.01000000
  1 43 100      65.12000275       0.01000000
  1 43 101      59.20000076       0.01000000
  1 43 102      58.66999817       0.01000000
  1 43 103      53.40000153       0.01000000
  1 43 104      54.36999893       0.01000000
  1 43 105      60.49000168       0.01000000
  1 43 106      36.95000076       0.01000000
  1 43 107      29.36000061       0.01000000
  1 43 108      25.36000061       0.01000000
  1 43 109      19.71999931       0.01000000
  1 43 110      15.51000023       0.01000000
  1 43 111       9.10000038       0.01000000
  1 43 112       8.10999966       0.01000000
  1 43 113       3.92000008       0.01000000
  1 43 114       4.92000008       0.01000000
  1 43 115       2.14000010       0.01000000
  1 43 116       1.13000011       0.01000000
  1 43 117      -0.37000000       0.01000000
  1 43 118       0.49000001       0.01000000
  1 43 119       0.00000000       0.01000000
  1 43 120       0.00000000       0.01000000
  1 43 121      -0.38000000       0.01000000
  1 43 122      -0.89000000       0.01000000
  1 43 123      -0.89000000       0.01000000
  1 43 138      -0.33999997       0.01000000
  1 43 143       0.85000002       0.01000000
  1 43 144       1.06999993       0.01000000
  1 44 101      53.45999908       0.01000000
  1 44 102      50.45000076       0.01000000
  1 44 103      49.24000168       0.01000000
  1 44 104      42.22000122       0.01000000
  1 44 105      34.08000183       0.01000000
  1 44 106      29.32999992       0.01000000
  1 44 107      28.02000046       0.01000000
  1 44 108      24.20000076       0.01000000
  1 44 109      19.13999939       0.01000000
  1 44 110      14.39000034       0.01000000
  1 44 111      12.05000019       0.01000000
  1 44 112      10.22000027       0.01000000
  1 44 113       8.92000008       0.01000000
  1 44 114       7.31999969       0.01000000
  1 44 115       2.59999990       0.01000000
  1 44 116       0.47000003       0.01000000
  1 44 117       0.13999999       0.01000000
  1 44 118       0.63000000       0.01000000
  1 44 119       0.37000000       0.01000000
  1 44 120       0.36000001       0.01000000
  1 44 121      -0.59999999       0.01000000
  1 44 122      -1.00000000       0.01000000
  1 44 123      -0.44000000       0.01000000
  1 44 124      -0.72999999       0.01000000
  1 44 142       0.32000005       0.01000000
  1 44 143       0.50000000       0.01000000
  1 44 144       0.78999996       0.01000000
  1 45 99      70.31999969       0.01000000
  1 45 101      49.15999985       0.01000000
  1 45 102      47.02000046       0.01000000
  1 45 103      43.63999939       0.01000000
  1 45 104      38.70000076       0.01000000
  1 45 105      34.34999847       0.01000000
  1 45 106      30.18000031       0.01000000
  1 45 107      25.18000031       0.01000000
  1 45 108      20.78000069       0.01000000
  1 45 109      19.00000000       0.01000000
  1 45 110      15.36000061       0.01000000
  1 45 111      12.25000000       0.01000000
  1 45 112       8.81000042       0.01000000
  1 45 113       6.57000017       0.01000000
  1 45 114       4.82000017       0.01000000
  1 45 115       2.92000008       0.01000000
  1 45 116       1.96000004       0.01000000
  1 45 117       1.44000006       0.01000000
  1 45 118       1.91000009       0.01000000
  1 45 119       1.00000000       0.01000000
  1 45 120       2.39000010       0.01000000
  1 45 121      -0.39999998       0.01000000
  1 45 122      -0.20999998       0.01000000
  1 45 123      -0.31000000       0.01000000
  1 45 124      -0.44000000       0.01000000
  1 45 142       0.47000003       0.01000000
  1 45 143       0.26999998       0.01000000
  1 45 144       1.16000009       0.01000000
  1 46 94      70.12000275       0.01000000
  1 46 95      71.08000183       0.01000000
  1 46 96      86.50000000       0.01000000
  1 46 97      63.00000000       0.01000000
  1 46 98      63.87000275       0.01000000
  1 46 99      52.29000092       0.01000000
  1 46 100      47.22000122       0.01000000
  1 46 101      44.36000061       0.01000000
  1 46 102      43.04000092       0.01000000
  1 46 103      40.20000076       0.01000000
  1 46 104      37.22000122       0.01000000
  1 46 105      32.59999847       0.01000000
  1 46 106      28.50000000       0.01000000
  1 46 107      24.97999954       0.01000000
  1 46 108      21.39999962       0.01000000
  1 46 109      18.87999916       0.01000000
  1 46 110      14.34000015       0.01000000
  1 46 111      11.56000042       0.01000000
  1 46 112       8.92000008       0.01000000
  1 46 113       7.31000042       0.01000000
  1 46 114       5.80000019       0.01000000
  1 46 115       4.57000017       0.01000000
  1 46 116       3.75000000       0.01000000
  1 46 117       1.89000010       0.01000000
  1 46 118       2.43000007       0.01000000
  1 46 119       1.50000000       0.01000000
  1 46 120       0.82000005       0.01000000
  1 46 121      -0.19000000       0.01000000
  1 46 122      -0.33999997       0.01000000
  1 46 123      -0.53999999       0.01000000
  1 46 124      -0.53999999       0.01000000
  1 46 140       0.41999996       0.01000000
  1 46 141       0.83000004       0.01000000
  1 46 142       0.32000005       0.01000000
  1 46 143       0.09000003       0.01000000
  1 46 144       0.90999997       0.01000000
  1 47 92      70.43000031       0.01000000
  1 47 93      67.63999939       0.01000000
  1 47 94      62.49000168       0.01000000
  1 47 95      63.41000366       0.01000000
  1 47 96      60.08000183       0.01000000
  1 47 97      57.70999908       0.01000000
  1 47 98      52.93999863       0.01000000
  1 47 99      49.34000015       0.01000000
  1 47 100      44.86000061       0.01000000
  1 47 101      41.58000183       0.01000000
  1 47 102      38.81999969       0.01000000
  1 47 103      36.97999954       0.01000000
  1 47 104      35.20000076       0.01000000
  1 47 105      31.04000092       0.01000000
  1 47 106      27.42000008       0.01000000
  1 47 107      23.15999985       0.01000000
  1 47 108      20.39999962       0.01000000
  1 47 109      18.15999985       0.01000000
  1 47 110      14.61999989       0.01000000
  1 47 111      11.76000023       0.01000000
  1 47 112       9.59000015       0.01000000
  1 47 113       7.46000004       0.01000000
  1 47 114       6.34000015       0.01000000
  1 47 115       5.15000010       0.01000000
  1 47 116       5.98000002       0.01000000
  1 47 117       1.64000010       0.01000000
  1 47 118       3.26000023       0.01000000
  1 47 119       1.75000000       0.01000000
  1 47 120       2.25000000       0.01000000
  1 47 121       0.04999995       0.01000000
  1 47 122      -0.53999999       0.01000000
  1 47 123      -0.53999999       0.01000000
  1 47 124      -0.53999999       0.01000000
  1 47 142       0.29999995       0.01000000
  1 47 143       0.09000003       0.01000000
  1 47 144       0.88999999       0.01000000
  1 48 91      69.61000061       0.01000000
  1 48 92      65.55999756       0.01000000
  1 48 93      62.43999863       0.01000000
  1 48 94      59.81999969       0.01000000
  1 48 95      61.06000137       0.01000000
  1 48 96      58.90000153       0.01000000
  1 48 97      55.22000122       0.01000000
  1 48 98      52.06000137       0.01000000
  1 48 99      48.38000107       0.01000000
  1 48 100      45.59999847       0.01000000
  1 48 101      41.74000168       0.01000000
  1 48 102      38.56000137       0.01000000
  1 48 103      35.13999939       0.01000000
  1 48 104      31.47999954       0.01000000
  1 48 105      28.92000008       0.01000000
  1 48 106      26.13999939       0.01000000
  1 48 107      22.81999969       0.01000000
  1 48 108      22.15999985       0.01000000
  1 48 109      17.23999977       0.01000000
  1 48 110      14.36999989       0.01000000
  1 48 111      11.72000027       0.01000000
  1 48 112      10.43999958       0.01000000
  1 48 113       8.47000027       0.01000000
  1 48 114       7.72000027       0.01000000
  1 48 115       6.36000013       0.01000000
  1 48 116       4.90000010       0.01000000
  1 48 117       4.09000015       0.01000000
  1 48 118       3.57000017       0.01000000
  1 48 119       4.51000023       0.01000000
  1 48 120       1.96000004       0.01000000
  1 48 121       0.49000001       0.01000000
  1 48 122      -0.08999997       0.01000000
  1 48 123      -0.44000000       0.01000000
  1 48 124      -0.13000000       0.01000000
  1 48 125      -0.31999999       0.01000000
  1 48 139      -0.93000000       0.01000000
  1 48 140       0.48000002       0.01000000
  1 48 141       1.00999999       0.01000000
  1 48 142      -0.06999999       0.01000000
  1 48 143       0.25999999       0.01000000
  1 48 144       0.96000004       0.01000000
  1 49 88      99.01999664       0.01000000
  1 49 89      85.86000061       0.01000000
  1 49 90      71.75000000       0.01000000
  1 49 91      61.18000031       0.01000000
  1 49 92      59.40000153       0.01000000
  1 49 93      59.09999847       0.01000000
  1 49 94      57.50999832       0.01000000
  1 49 95      58.29999924       0.01000000
  1 49 96      56.79999924       0.01000000
  1 49 97      54.06000137       0.01000000
  1 49 98      51.06000137       0.01000000
  1 49 99      47.91999817       0.01000000
  1 49 100      44.70999908       0.01000000
  1 49 101      41.08000183       0.01000000
  1 49 102      38.06000137       0.01000000
  1 49 103      34.09999847       0.01000000
  1 49 104      31.06000137       0.01000000
  1 49 105      26.89999962       0.01000000
  1 49 106      24.60000038       0.01000000
  1 49 107      22.42000008       0.01000000
  1 49 108      19.57999992       0.01000000
  1 49 109      16.89999962       0.01000000
  1 49 110      14.43999958       0.01000000
  1 49 111      11.77999973       0.01000000
  1 49 112      10.31999969       0.01000000
  1 49 113       8.22000027       0.01000000
  1 49 114       7.47000027       0.01000000
  1 49 115       5.59000015       0.01000000
  1 49 116       4.61000013       0.01000000
  1 49 117       5.03000021       0.01000000
  1 49 118       4.23000002       0.01000000
  1 49 119       3.57000017       0.01000000
  1 49 120       2.85999990       0.01000000
  1 49 121       0.99000001       0.01000000
  1 49 122       0.39999998       0.01000000
  1 49 123      -0.17000002       0.01000000
  1 49 124      -0.31999999       0.01000000
  1 49 125      -0.14999998       0.01000000
  1 49 140       0.63000000       0.01000000
  1 49 141      -0.93000000       0.01000000
  1 49 142       0.53999996       0.01000000
  1 49 143       0.14999998       0.01000000
  1 49 144       1.41000009       0.01000000
  1 50 87      90.19999695       0.01000000
  1 50 88      81.44000244       0.01000000
  1 50 89      72.98999786       0.01000000
  1 50 90      66.62000275       0.01000000
  1 50 91      59.38000107       0.01000000
  1 50 92      53.91999817       0.01000000
  1 50 93      56.22999954       0.01000000
  1 50 94      55.95999908       0.01000000
  1 50 95      54.86000061       0.01000000
  1 50 96      53.02000046       0.01000000
  1 50 97      51.86000061       0.01000000
  1 50 98      49.59999847       0.01000000
  1 50 99      46.22000122       0.01000000
  1 50 100      43.50000000       0.01000000
  1 50 101      40.18000031       0.01000000
  1 50 102      37.02000046       0.01000000
  1 50 103      33.43999863       0.01000000
  1 50 104      29.89999962       0.01000000
  1 50 105      26.34000015       0.01000000
  1 50 106      23.94000053       0.01000000
  1 50 107      21.13999939       0.01000000
  1 50 108      19.39999962       0.01000000
  1 50 109      16.02000046       0.01000000
  1 50 110      13.38000011       0.01000000
  1 50 111      11.02999973       0.01000000
  1 50 112      10.19999981       0.01000000
  1 50 113       8.52000046       0.01000000
  1 50 114       7.55000019       0.01000000
  1 50 115       6.82000017       0.01000000
  1 50 116       6.23000002       0.01000000
  1 50 117       5.65000010       0.01000000
  1 50 118       7.06000042       0.01000000
  1 50 119       3.15000010       0.01000000
  1 50 120       2.48000002       0.01000000
  1 50 121       1.25999999       0.01000000
  1 50 122       0.53999996       0.01000000
  1 50 123      -0.08999997       0.01000000
  1 50 124      -0.23000002       0.01000000
  1 50 125      -0.53000000       0.01000000
  1 50 142       0.26999998       0.01000000
  1 50 143       0.76999998       0.01000000
  1 50 144       1.20000005       0.01000000
  1 51 85     101.62999725       0.01000000
  1 51 86      97.94999695       0.01000000
  1 51 89      76.81999969       0.01000000
  1 51 90      65.16999817       0.01000000
  1 51 91      58.25999832       0.01000000
  1 51 92      53.11999893       0.01000000
  1 51 93      50.70000076       0.01000000
  1 51 94      51.09999847       0.01000000
  1 51 95      51.65999985       0.01000000
  1 51 96      50.68000031       0.01000000
  1 51 97      49.18999863       0.01000000
  1 51 98      47.70000076       0.01000000
  1 51 99      44.50000000       0.01000000
  1 51 100      41.84000015       0.01000000
  1 51 101      38.86000061       0.01000000
  1 51 102      35.58000183       0.01000000
  1 51 103      32.68000031       0.01000000
  1 51 104      29.65999985       0.01000000
  1 51 105      24.97999954       0.01000000
  1 51 106      23.18000031       0.01000000
  1 51 107      20.02000046       0.01000000
  1 51 108      18.21999931       0.01000000
  1 51 109      15.78000069       0.01000000
  1 51 110      13.03999996       0.01000000
  1 51 111      10.81999969       0.01000000
  1 51 112      10.53999996       0.01000000
  1 51 113       8.97999954       0.01000000
  1 51 114       8.06999969       0.01000000
  1 51 115       8.17000008       0.01000000
  1 51 116       6.73000002       0.01000000
  1 51 117       7.00000000       0.01000000
  1 51 118       6.26000023       0.01000000
  1 51 119       4.26000023       0.01000000
  1 51 120       3.76000023       0.01000000
  1 51 121       1.91000009       0.01000000
  1 51 122       1.02999997       0.01000000
  1 51 123       0.11000001       0.01000000
  1 51 124       0.45000005       0.01000000
  1 51 125      -0.19999999       0.01000000
  1 51 126      -0.62000000       0.01000000
  1 51 142      -0.93000000       0.01000000
  1 51 143       1.22000003       0.01000000
  1 51 144       0.99000001       0.01000000
  1 52 85      86.30000305       0.01000000
  1 52 86      82.73999786       0.01000000
  1 52 87      76.34999847       0.01000000
  1 52 88      72.87000275       0.01000000
  1 52 89      60.25999832       0.01000000
  1 52 90      58.43999863       0.01000000
  1 52 91      54.13999939       0.01000000
  1 52 92      49.40999985       0.01000000
  1 52 93      44.15000153       0.01000000
  1 52 94      47.97000122       0.01000000
  1 52 95      48.47999954       0.01000000
  1 52 96      47.36000061       0.01000000
  1 52 97      45.88000107       0.01000000
  1 52 98      44.58000183       0.01000000
  1 52 99      42.43999863       0.01000000
  1 52 100      39.86000061       0.01000000
  1 52 101      37.13999939       0.01000000
  1 52 102      34.02000046       0.01000000
  1 52 103      30.92000008       0.01000000
  1 52 104      28.26000023       0.01000000
  1 52 105      23.92000008       0.01000000
  1 52 106      22.37999916       0.01000000
  1 52 107      19.34000015       0.01000000
  1 52 108      17.15999985       0.01000000
  1 52 109      14.92000008       0.01000000
  1 52 110      13.07999992       0.01000000
  1 52 111      11.31999969       0.01000000
  1 52 112      10.22000027       0.01000000
  1 52 113      11.14000034       0.01000000
  1 52 114       8.93999958       0.01000000
  1 52 115       8.00000000       0.01000000
  1 52 116       7.17000008       0.01000000
  1 52 117       5.88000011       0.01000000
  1 52 118       5.32000017       0.01000000
  1 52 119       3.80000019       0.01000000
  1 52 120       2.71000004       0.01000000
  1 52 121       1.74000001       0.01000000
  1 52 122       1.14000010       0.01000000
  1 52 123       0.54999995       0.01000000
  1 52 124       0.41999996       0.01000000
  1 52 125      -0.18000001       0.01000000
  1 52 126      -0.66000000       0.01000000
  1 52 137      -0.02999997       0.01000000
  1 52 142       0.89999998       0.01000000
  1 52 143       1.14000010       0.01000000
  1 52 144       1.00000000       0.01000000
  1 53 85      78.12999725       0.01000000
  1 53 86      72.55000305       0.01000000
  1 53 87      71.30000305       0.01000000
  1 53 88      64.30000305       0.01000000
  1 53 89      56.91999817       0.01000000
  1 53 90      50.13000107       0.01000000
  1 53 91      48.06999969       0.01000000
  1 53 92      45.97999954       0.01000000
  1 53 93      40.63999939       0.01000000
  1 53 94      45.40999985       0.01000000
  1 53 95      44.77999878       0.01000000
  1 53 96      44.72999954       0.01000000
  1 53 97      43.02000046       0.01000000
  1 53 98      41.61999893       0.01000000
  1 53 99      39.45999908       0.01000000
  1 53 100      38.40000153       0.01000000
  1 53 101      35.02000046       0.01000000
  1 53 102      32.95999908       0.01000000
  1 53 103      29.44000053       0.01000000
  1 53 104      26.34000015       0.01000000
  1 53 105      23.50000000       0.01000000
  1 53 106      20.95999908       0.01000000
  1 53 107      18.68000031       0.01000000
  1 53 108      16.37999916       0.01000000
  1 53 109      13.93999958       0.01000000
  1 53 110      12.47999954       0.01000000
  1 53 111      10.88000011       0.01000000
  1 53 112      12.64000034       0.01000000
  1 53 113      10.46000004       0.01000000
  1 53 114       8.92000008       0.01000000
  1 53 115       8.02000046       0.01000000
  1 53 116       7.14000034       0.01000000
  1 53 117       7.81999969       0.01000000
  1 53 118       5.32000017       0.01000000
  1 53 119       4.36000013       0.01000000
  1 53 120       4.07000017       0.01000000
  1 53 121       3.38000011       0.01000000
  1 53 122       1.76999998       0.01000000
  1 53 123       1.78999996       0.01000000
  1 53 124       0.58000004       0.01000000
  1 53 125      -0.36000001       0.01000000
  1 53 126       0.07000005       0.01000000
  1 53 127       0.04999995       0.01000000
  1 53 128       0.47000003       0.01000000
  1 53 134       0.37000000       0.01000000
  1 53 135       0.41999996       0.01000000
  1 53 136      -0.18000001       0.01000000
  1 53 137       0.78999996       0.01000000
  1 53 138       0.62000000       0.01000000
  1 53 139       0.52999997       0.01000000
  1 53 142       0.25000000       0.01000000
  1 53 143       0.90999997       0.01000000
  1 53 144       1.26999998       0.01000000
  1 54 85      87.88999939       0.01000000
  1 54 86      68.08000183       0.01000000
  1 54 87      63.59999847       0.01000000
  1 54 88      58.63999939       0.01000000
  1 54 89      52.68000031       0.01000000
  1 54 90      47.22000122       0.01000000
  1 54 91      43.90000153       0.01000000
  1 54 92      42.25999832       0.01000000
  1 54 93      38.86000061       0.01000000
  1 54 94      42.91999817       0.01000000
  1 54 95      41.61999893       0.01000000
  1 54 96      41.36000061       0.01000000
  1 54 97      39.95999908       0.01000000
  1 54 98      38.63999939       0.01000000
  1 54 99      36.61999893       0.01000000
  1 54 100      34.72000122       0.01000000
  1 54 101      33.04000092       0.01000000
  1 54 102      30.45999908       0.01000000
  1 54 103      27.73999977       0.01000000
  1 54 104      24.97999954       0.01000000
  1 54 105      23.04000092       0.01000000
  1 54 106      20.79999924       0.01000000
  1 54 107      17.73999977       0.01000000
  1 54 108      15.71999931       0.01000000
  1 54 109      14.50000000       0.01000000
  1 54 110      13.18999958       0.01000000
  1 54 111      12.89999962       0.01000000
  1 54 112      12.65999985       0.01000000
  1 54 113      11.38000011       0.01000000
  1 54 114      11.65999985       0.01000000
  1 54 115       8.94999981       0.01000000
  1 54 116       8.39000034       0.01000000
  1 54 117       7.35000038       0.01000000
  1 54 118       6.15000010       0.01000000
  1 54 119       5.92000008       0.01000000
  1 54 120       4.09000015       0.01000000
  1 54 121       2.93000007       0.01000000
  1 54 122       2.25000000       0.01000000
  1 54 123       1.00999999       0.01000000
  1 54 124       0.52999997       0.01000000
  1 54 125       0.50000000       0.01000000
  1 54 126       0.75999999       0.01000000
  1 54 127       1.39000010       0.01000000
  1 54 128       0.12000000       0.01000000
  1 54 129       0.20000005       0.01000000
  1 54 130       0.35000002       0.01000000
  1 54 131       0.01999998       0.01000000
  1 54 132       0.03999996       0.01000000
  1 54 133       0.16999996       0.01000000
  1 54 134      -0.20999998       0.01000000
  1 54 135      -0.38000000       0.01000000
  1 54 136      -0.25000000       0.01000000
  1 54 137       0.34000003       0.01000000
  1 54 138       0.26999998       0.01000000
  1 54 139       0.38000000       0.01000000
  1 54 140       0.82000005       0.01000000
  1 54 141       1.25000000       0.01000000
  1 54 142       1.03999996       0.01000000
  1 54 144       0.36000001       0.01000000
  1 55 86      67.63999939       0.01000000
  1 55 87      59.40000153       0.01000000
  1 55 88      54.61999893       0.01000000
  1 55 89      49.58000183       0.01000000
  1 55 90      44.88000107       0.01000000
  1 55 91      40.04000092       0.01000000
  1 55 92      40.86000061       0.01000000
  1 55 93      37.09999847       0.01000000
  1 55 94      39.56000137       0.01000000
  1 55 95      39.08000183       0.01000000
  1 55 96      38.40000153       0.01000000
  1 55 97      37.34000015       0.01000000
  1 55 98      35.95999908       0.01000000
  1 55 99      34.22000122       0.01000000
  1 55 100      32.52000046       0.01000000
  1 55 101      30.84000015       0.01000000
  1 55 102      28.57999992       0.01000000
  1 55 103      26.54000092       0.01000000
  1 55 104      24.12000084       0.01000000
  1 55 105      19.20000076       0.01000000
  1 55 106      19.14999962       0.01000000
  1 55 107      17.71999931       0.01000000
  1 55 108      16.14999962       0.01000000
  1 55 109      14.18000031       0.01000000
  1 55 110      13.38000011       0.01000000
  1 55 111      13.22000027       0.01000000
  1 55 112      12.48999977       0.01000000
  1 55 113      12.52999973       0.01000000
  1 55 114      11.11999989       0.01000000
  1 55 115       8.96000004       0.01000000
  1 55 116       7.89000034       0.01000000
  1 55 117       6.32000017       0.01000000
  1 55 118       5.59000015       0.01000000
  1 55 119       5.28000021       0.01000000
  1 55 120       4.21000004       0.01000000
  1 55 121       2.80999994       0.01000000
  1 55 122       2.08999991       0.01000000
  1 55 123       1.08999991       0.01000000
  1 55 124       0.74000001       0.01000000
  1 55 125       0.86000001       0.01000000
  1 55 126       0.82000005       0.01000000
  1 55 127       0.73000002       0.01000000
  1 55 128       0.50000000       0.01000000
  1 55 129       0.51999998       0.01000000
  1 55 130       0.50000000       0.01000000
  1 55 131       0.40999997       0.01000000
  1 55 132       0.49000001       0.01000000
  1 55 133       0.13999999       0.01000000
  1 55 134      -0.06999999       0.01000000
  1 55 135      -0.13000000       0.01000000
  1 55 136      -0.26999998       0.01000000
  1 55 137       0.03999996       0.01000000