BEGIN options
  SAVE_FLOWS
END options

BEGIN dimensions
  MAXBOUND  83
END dimensions

BEGIN period  1
  1 60 88      23.77416403
  1 60 89      23.31148047
  1 60 90      22.90719021
  1 61 90      22.59882688
  1 61 91      22.29598931
  1 62 91      21.87099137
  1 63 91      21.44306686
  1 63 92      21.18494872
  1 64 92      20.86863092
  1 64 93      20.41022756
  1 64 94      19.98925263
  1 63 94      19.72366058
  1 63 95      19.36222873
  1 63 96      18.84349015
  1 63 97      18.33908589
  1 63 98      17.94366155
  1 64 98      17.60791933
  1 64 99      17.15321708
  1 64 100      16.76872609
  1 63 100      16.49570269
  1 63 101      16.12032808
  1 63 102      15.64549731
  1 63 103      15.34447171
  1 64 103      15.10478123
  1 64 104      14.69490780
  1 64 105      14.22509396
  1 64 106      13.75667074
  1 64 107      12.76020450
  1 64 108      12.30886103
  1 65 108      12.07629539
  1 65 109      11.75617921
  1 65 110      11.43850606
  1 66 110      11.22619822
  1 66 109      11.00897557
  1 67 109      10.88713151
  1 67 110      10.63353825
  1 68 110      10.34366614
  1 68 111       9.98591077
  1 68 112       9.54411688
  1 68 113       9.09726189
  1 68 114       8.66421172
  1 69 114       8.44807601
  1 69 115       8.21650712
  1 69 116       7.73773616
  1 70 116       7.43290212
  1 70 117       7.14067274
  1 71 117       6.84086707
  1 71 118       6.55650800
  1 71 119       6.09948227
  1 71 120       5.65443038
  1 71 121       4.90717765
  1 71 122       4.72289471
  1 71 123       4.53445408
  1 71 124       4.36950076
  1 70 124       4.24087689
  1 70 125       4.07457694
  1 69 125       3.96553632
  1 69 126       3.85422461
  1 69 127       3.68339299
  1 68 127       3.57779560
  1 68 128       3.43088605
  1 68 129       3.28235120
  1 67 129       3.17852819
  1 67 130       3.02482641
  1 67 131       2.83685339
  1 67 132       2.66270829
  1 66 132       2.56783532
  1 66 133       2.45751507
  1 66 134       2.26509092
  1 66 135       2.08278693
  1 65 135       1.98622488
  1 65 136       1.87547734
  1 65 137       1.67884457
  1 65 138       1.52024553
  1 64 138       1.42614044
  1 64 139       1.30236497
  1 64 140       1.11903627
  1 64 141       0.90993229
  1 63 141       0.77475295
  1 63 142       0.66148639
  1 62 142       0.50612955
  1 62 143       0.35991037
  1 61 143       0.25537677
END period  1

