BEGIN options
  SAVE_FLOWS
END options

BEGIN dimensions
  MAXBOUND  64
END dimensions

BEGIN period  1
  2 127 63     133.90829647       0.01000000     131.90829647
  2 127 64     129.90759546       0.01000000     127.90759546
  2 126 64     129.93673341       0.01000000     127.93673341
  2 127 65     129.99125738       0.01000000     127.99125738
  2 127 66     128.62587265       0.01000000     126.62587265
  2 127 67     122.95573027       0.01000000     120.95573027
  2 127 68     120.01611067       0.01000000     118.01611067
  2 127 69     118.14435255       0.01000000     116.14435255
  2 126 69     116.66926072       0.01000000     114.66926072
  2 126 70     113.21159068       0.01000000     111.21159068
  2 126 71     113.92534847       0.01000000     111.92534847
  2 126 72     111.01750493       0.01000000     109.01750493
  2 126 73     109.36056701       0.01000000     107.36056701
  2 127 73     109.11588841       0.01000000     107.11588841
  2 127 74     108.91807950       0.01000000     106.91807950
  2 126 74     107.79991924       0.01000000     105.79991924
  2 126 75     105.94621315       0.01000000     103.94621315
  2 126 76     104.67430714       0.01000000     102.67430714
  2 125 76     103.62552051       0.01000000     101.62552051
  2 125 77     100.83548983       0.01000000      98.83548983
  2 124 77     100.76195121       0.01000000      98.76195121
  2 124 78     100.68852411       0.01000000      98.68852411
  2 124 79      99.36601739       0.01000000      97.36601739
  2 124 80      93.05544541       0.01000000      91.05544541
  2 124 81      88.85204945       0.01000000      86.85204945
  2 123 81      85.15973261       0.01000000      83.15973261
  2 122 81      84.17234688       0.01000000      82.17234688
  2 122 82      83.85152546       0.01000000      81.85152546
  2 123 82      81.80386432       0.01000000      79.80386432
  2 124 82      81.39127646       0.01000000      79.39127646
  2 123 83      80.31614020       0.01000000      78.31614020
  2 122 83      78.71732369       0.01000000      76.71732369
  2 122 84      78.33158350       0.01000000      76.33158350
  2 123 84      78.12303402       0.01000000      76.12303402
  2 122 85      76.34284002       0.01000000      74.34284002
  2 122 86      72.84106228       0.01000000      70.84106228
  2 122 87      72.65677384       0.01000000      70.65677384
  2 121 87      71.51637387       0.01000000      69.51637387
  2 121 88      70.67273938       0.01000000      68.67273938
  2 120 88      68.41243227       0.01000000      66.41243227
  2 119 88      64.74988459       0.01000000      62.74988459
  2 119 89      63.73612719       0.01000000      61.73612719
  2 119 90      63.38863382       0.01000000      61.38863382
  2 119 91      61.84365775       0.01000000      59.84365775
  2 118 91      61.32201766       0.01000000      59.32201766
  2 118 92      61.47018429       0.01000000      59.47018429
  2 117 92      60.91862443       0.01000000      58.91862443
  2 117 93      59.87448556       0.01000000      57.87448556
  2 118 93      58.66296363       0.01000000      56.66296363
  2 118 94      57.50111456       0.01000000      55.50111456
  2 117 94      54.81320738       0.01000000      52.81320738
  2 116 94      54.19961952       0.01000000      52.19961952
  2 116 95      53.73185070       0.01000000      51.73185070
  2 117 95      52.79493006       0.01000000      50.79493006
  2 117 96      51.49379990       0.01000000      49.49379990
  2 116 96      48.57785326       0.01000000      46.57785326
  2 115 96      46.90994631       0.01000000      44.90994631
  2 115 97      45.55282168       0.01000000      43.55282168
  2 116 97      44.87347992       0.01000000      42.87347992
  2 115 98      44.00000000       0.01000000      42.00000000
  2 114 98      44.00000000       0.01000000      42.00000000
  2 114 99      43.16239610       0.01000000      41.16239610
  2 113 99      41.56033477       0.01000000      39.56033477
  2 113 100      39.89793867       0.01000000      37.89793867
END period  1

