BEGIN options
  SAVE_FLOWS
END options

BEGIN dimensions
  MAXBOUND  169
END dimensions

BEGIN period  1
  1 5 145       0.00000000
  1 6 145       0.00000000
  1 6 146       0.00000000
  1 6 147       0.00000000
  1 7 147       0.00000000
  1 7 148       0.00000000
  1 7 149       0.00000000
  1 8 149       0.00000000
  1 9 149       0.00000000
  1 9 150       0.00000000
  1 10 150       0.00000000
  1 11 150       0.00000000
  1 12 150       0.00000000
  1 13 149       0.00000000
  1 13 150       0.00000000
  1 14 149       0.00000000
  1 15 149       0.00000000
  1 16 149       0.00000000
  1 17 149       0.00000000
  1 18 148       0.00000000
  1 18 149       0.00000000
  1 19 148       0.00000000
  1 20 148       0.00000000
  1 21 148       0.00000000
  1 22 148       0.00000000
  1 23 148       0.00000000
  1 24 148       0.00000000
  1 25 148       0.00000000
  1 26 147       0.00000000
  1 26 148       0.00000000
  1 27 147       0.00000000
  1 28 147       0.00000000
  1 29 147       0.00000000
  1 30 147       0.00000000
  1 31 147       0.00000000
  1 32 147       0.00000000
  1 33 146       0.00000000
  1 33 147       0.00000000
  1 34 146       0.00000000
  1 35 146       0.00000000
  1 36 146       0.00000000
  1 37 146       0.00000000
  1 38 146       0.00000000
  1 39 146       0.00000000
  1 40 145       0.00000000
  1 40 146       0.00000000
  1 41 145       0.00000000
  1 42 145       0.00000000
  1 43 145       0.00000000
  1 44 145       0.00000000
  1 45 145       0.00000000
  1 46 145       0.00000000
  1 47 145       0.00000000
  1 48 145       0.00000000
  1 49 145       0.00000000
  1 50 145       0.00000000
  1 51 145       0.00000000
  1 52 145       0.00000000
  1 53 145       0.00000000
  1 54 145       0.00000000
  1 55 145       0.00000000
  1 56 145       0.00000000
  1 57 145       0.00000000
  1 58 145       0.00000000
  1 59 145       0.00000000
  1 60 145       0.00000000
  1 61 144       0.00000000
  1 61 145       0.00000000
  1 62 144       0.00000000
  1 63 144       0.00000000
  1 64 144       0.00000000
  1 65 144       0.00000000
  1 66 144       0.00000000
  1 67 144       0.00000000
  1 68 144       0.00000000
  1 69 144       0.00000000
  1 70 144       0.00000000
  1 71 144       0.00000000
  1 72 144       0.00000000
  1 73 144       0.00000000
  1 74 144       0.00000000
  1 75 144       0.00000000
  1 76 144       0.00000000
  1 77 144       0.00000000
  1 78 144       0.00000000
  1 79 144       0.00000000
  1 79 145       0.00000000
  1 80 145       0.00000000
  1 81 145       0.00000000
  1 82 145       0.00000000
  1 83 145       0.00000000
  1 84 145       0.00000000
  1 85 145       0.00000000
  1 86 145       0.00000000
  1 87 144       0.00000000
  1 87 145       0.00000000
  1 88 144       0.00000000
  1 89 144       0.00000000
  1 90 144       0.00000000
  1 91 144       0.00000000
  1 92 144       0.00000000
  1 93 144       0.00000000
  1 94 144       0.00000000
  1 95 144       0.00000000
  1 96 144       0.00000000
  1 97 144       0.00000000
  1 98 143       0.00000000
  1 98 144       0.00000000
  1 99 143       0.00000000
  1 100 143       0.00000000
  1 101 143       0.00000000
  1 102 143       0.00000000
  1 103 143       0.00000000
  1 104 143       0.00000000
  1 105 143       0.00000000
  1 106 143       0.00000000
  1 107 143       0.00000000
  1 108 143       0.00000000
  1 108 144       0.00000000
  1 109 144       0.00000000
  1 110 144       0.00000000
  1 111 144       0.00000000
  1 112 144       0.00000000
  1 113 144       0.00000000
  1 114 144       0.00000000
  1 115 144       0.00000000
  1 116 144       0.00000000
  1 117 144       0.00000000
  1 118 144       0.00000000
  1 119 144       0.00000000
  1 120 144       0.00000000
  1 120 145       0.00000000
  1 121 145       0.00000000
  1 122 145       0.00000000
  1 123 145       0.00000000
  1 124 145       0.00000000
  1 125 145       0.00000000
  1 126 145       0.00000000
  1 126 146       0.00000000
  1 127 146       0.00000000
  1 128 146       0.00000000
  1 129 146       0.00000000
  1 130 146       0.00000000
  1 131 146       0.00000000
  1 132 146       0.00000000
  1 133 146       0.00000000
  1 133 147       0.00000000
  1 134 147       0.00000000
  1 135 147       0.00000000
  1 136 147       0.00000000
  1 137 147       0.00000000
  1 138 147       0.00000000
  1 139 147       0.00000000
  1 140 147       0.00000000
  1 141 147       0.00000000
  1 142 147       0.00000000
  1 143 147       0.00000000
  1 144 147       0.00000000
  1 145 147       0.00000000
  1 146 147       0.00000000
  1 147 147       0.00000000
  1 147 148       0.00000000
  1 148 148       0.00000000
  1 149 148       0.00000000
  1 149 149       0.00000000
  1 150 149       0.00000000
  1 151 149       0.00000000
  1 151 150       0.00000000
  1 152 150       0.00000000
END period  1

