BEGIN options
  SAVE_FLOWS
END options

BEGIN dimensions
  MAXBOUND  127
END dimensions

BEGIN period  1
  1 167 64     130.44170391
  1 167 65     128.75639767
  1 167 66     127.55222636
  1 166 66     126.37350862
  1 166 67     124.16582444
  1 166 68     121.91977889
  1 166 69     120.65224247
  1 167 69     119.52381587
  1 167 70     117.85732305
  1 166 70     116.53602163
  1 166 71     114.68138111
  1 165 71     112.36046755
  1 164 71     110.14728099
  1 164 72     109.02420747
  1 163 72     107.81400151
  1 162 72     105.65597533
  1 162 73     103.56262542
  1 162 74     101.35438736
  1 162 75      99.15980779
  1 162 76      96.96084820
  1 162 77      94.76502989
  1 162 78      92.57416487
  1 162 79      90.36748113
  1 162 80      88.96619907
  1 161 80      87.70133091
  1 161 81      85.69735798
  1 160 81      84.30460520
  1 160 82      82.68920986
  1 159 82      81.22508671
  1 159 83      79.70175426
  1 159 84      77.98696909
  1 158 84      76.74161450
  1 158 85      74.75056574
  1 158 86      72.43599934
  1 158 87      68.41852309
  1 158 88      67.25117602
  1 157 88      66.65007440
  1 157 89      66.06816312
  1 156 89      64.91037395
  1 155 89      63.97990449
  1 155 90      63.16527986
  1 156 90      62.44262135
  1 156 91      61.52364872
  1 156 92      60.79026962
  1 155 92      60.69587687
  1 155 91      60.03262429
  1 154 91      58.71883435
  1 153 91      58.02898058
  1 153 92      57.36020887
  1 152 92      56.38720916
  1 152 93      55.50941256
  1 152 94      54.33229664
  1 152 95      53.60476811
  1 151 95      52.77080205
  1 150 95      51.98794925
  1 150 96      51.25305114
  1 149 96      50.41733897
  1 149 97      49.55371800
  1 149 98      48.80589108
  1 148 98      48.10438969
  1 148 99      47.21408568
  1 147 99      46.44277382
  1 147 100      45.62194576
  1 146 100      44.90200268
  1 146 101      43.81072491
  1 146 102      42.55171486
  1 146 103      41.67600048
  1 145 103      40.97221881
  1 145 104      40.23955765
  1 144 104      39.34876520
  1 144 105      38.48840701
  1 143 105      37.79915794
  1 143 106      36.76838481
  1 143 107      35.99212633
  1 142 107      35.28521008
  1 142 108      34.17186925
  1 142 109      33.35322810
  1 141 109      32.42974150
  1 140 109      31.37762790
  1 140 110      30.81142778
  1 139 110      30.03308650
  1 138 110      28.78683404
  1 137 110      28.03413658
  1 137 111      26.19967447
  1 137 112      25.30622868
  1 138 112      24.77089557
  1 138 113      24.08055061
  1 138 114      23.07508542
  1 138 115      22.03313475
  1 138 116      21.39703877
  1 137 116      20.79235897
  1 136 116      19.87211302
  1 136 117      19.37946169
  1 135 117      18.68555632
  1 135 118      18.04343140
  1 134 118      17.52143759
  1 134 119      16.60649727
  1 134 120      15.68080016
  1 134 121      14.74855363
  1 134 122      13.82098778
  1 134 123      12.91210713
  1 134 124      11.98660262
  1 134 125      11.05958387
  1 134 126      10.14866055
  1 134 127       9.23424520
  1 134 128       8.63442153
  1 133 128       8.16525874
  1 133 129       7.37477031
  1 133 130       5.83038947
  1 133 131       5.49241955
  1 133 132       5.14985312
  1 133 133       4.84655771
  1 134 133       4.66055745
  1 134 134       4.41502223
  1 134 135       4.05699705
  1 134 136       3.71645953
  1 134 137       3.37616227
  1 134 138       3.03198033
  1 134 139       2.67949975
  1 134 140       2.32259108
  1 134 141       2.13934542
  1 133 141       1.95597726
  1 133 142       1.60107165
  1 133 143       1.25287911
  1 133 144       1.04516337
  1 132 144       0.87121491
  1 132 145       0.55060439
END period  1

