BEGIN options
  DIGITS  10
  PRINT_INPUT
END options

BEGIN continuous  FILEOUT  heads.csv
  0_50_94  HEAD  1 51 95
  0_56_126  HEAD  1 57 127
  0_57_83  HEAD  1 58 84
  0_62_126  HEAD  1 63 127
  0_63_94  HEAD  1 64 95
  0_63_99  HEAD  1 64 100
  0_63_117  HEAD  1 64 118
  0_64_92  HEAD  1 65 93
  0_64_96  HEAD  1 65 97
  0_64_104  HEAD  1 65 105
  0_64_111  HEAD  1 65 112
  0_66_128  HEAD  1 67 129
  0_67_110  HEAD  1 68 111
  0_67_119  HEAD  1 68 120
  0_69_104  HEAD  1 70 105
  0_69_105  HEAD  1 70 106
  0_69_116  HEAD  1 70 117
  0_69_118  HEAD  1 70 119
  0_70_73  HEAD  1 71 74
  0_71_72  HEAD  1 72 73
  0_73_83  HEAD  1 74 84
  0_74_115  HEAD  1 75 116
  0_75_124  HEAD  1 76 125
  0_76_89  HEAD  1 77 90
  0_79_66  HEAD  1 80 67
  0_79_77  HEAD  1 80 78
  0_80_103  HEAD  1 81 104
  0_82_115  HEAD  1 83 116
  0_83_67  HEAD  1 84 68
  0_83_95  HEAD  1 84 96
  0_83_106  HEAD  1 84 107
  0_83_124  HEAD  1 84 125
  0_84_94  HEAD  1 85 95
  0_84_125  HEAD  1 85 126
  0_84_127  HEAD  1 85 128
  0_88_110  HEAD  1 89 111
  0_91_101  HEAD  1 92 102
  0_92_93  HEAD  1 93 94
  0_93_114  HEAD  1 94 115
  0_94_95  HEAD  1 95 96
  0_94_103  HEAD  1 95 104
  0_94_115  HEAD  1 95 116
  0_95_75  HEAD  1 96 76
  0_95_81  HEAD  1 96 82
  0_95_95  HEAD  1 96 96
  0_95_128  HEAD  1 96 129
  0_98_43  HEAD  1 99 44
  0_98_91  HEAD  1 99 92
  0_99_44  HEAD  1 100 45
  0_99_118  HEAD  1 100 119
  0_100_51  HEAD  1 101 52
  0_100_75  HEAD  1 101 76
  0_101_53  HEAD  1 102 54
  0_101_59  HEAD  1 102 60
  0_102_22  HEAD  1 103 23
  0_102_24  HEAD  1 103 25
  0_102_28  HEAD  1 103 29
  0_102_57  HEAD  1 103 58
  0_103_32  HEAD  1 104 33
  0_104_45  HEAD  1 105 46
  0_104_74  HEAD  1 105 75
  0_106_17  HEAD  1 107 18
  0_106_58  HEAD  1 107 59
  0_106_71  HEAD  1 107 72
  0_108_24  HEAD  1 109 25
  0_108_42  HEAD  1 109 43
  0_108_43  HEAD  1 109 44
  0_109_12  HEAD  1 110 13
  0_110_22  HEAD  1 111 23
  0_111_42  HEAD  1 112 43
  0_112_16  HEAD  1 113 17
  0_112_61  HEAD  1 113 62
  0_113_102  HEAD  1 114 103
  0_114_6  HEAD  1 115 7
  0_114_13  HEAD  1 115 14
  0_114_114  HEAD  1 115 115
  0_115_66  HEAD  1 116 67
  0_116_1  HEAD  1 117 2
  0_116_59  HEAD  1 117 60
  0_116_60  HEAD  1 117 61
  0_116_100  HEAD  1 117 101
  0_119_43  HEAD  1 120 44
  0_120_112  HEAD  1 121 113
  0_120_123  HEAD  1 121 124
  0_121_82  HEAD  1 122 83
  0_121_104  HEAD  1 122 105
  0_122_94  HEAD  1 123 95
  0_125_75  HEAD  1 126 76
  0_129_69  HEAD  1 130 70
  0_129_86  HEAD  1 130 87
  0_129_100  HEAD  1 130 101
  0_131_65  HEAD  1 132 66
  0_132_50  HEAD  1 133 51
  0_133_56  HEAD  1 134 57
  0_135_119  HEAD  1 136 120
  0_136_70  HEAD  1 137 71
  0_137_73  HEAD  1 138 74
  0_138_116  HEAD  1 139 117
  0_139_122  HEAD  1 140 123
  0_140_74  HEAD  1 141 75
  0_140_89  HEAD  1 141 90
  0_141_114  HEAD  1 142 115
  0_142_116  HEAD  1 143 117
  0_143_107  HEAD  1 144 108
  0_146_106  HEAD  1 147 107
  0_147_91  HEAD  1 148 92
  0_147_97  HEAD  1 148 98
  0_148_98  HEAD  1 149 99
  0_149_129  HEAD  1 150 130
  0_152_94  HEAD  1 153 95
  0_153_111  HEAD  1 154 112
  0_153_113  HEAD  1 154 114
  0_153_124  HEAD  1 154 125
  0_154_126  HEAD  1 155 127
  0_155_123  HEAD  1 156 124
  0_155_131  HEAD  1 156 132
  0_156_96  HEAD  1 157 97
  0_156_99  HEAD  1 157 100
  0_165_59  HEAD  1 166 60
  0_165_101  HEAD  1 166 102
  0_167_59  HEAD  1 168 60
  0_167_66  HEAD  1 168 67
END continuous  FILEOUT  heads.csv

BEGIN continuous  FILEOUT  heads_pcmap.csv
  0_45_124  HEAD  1 46 125
  0_170_54  HEAD  1 171 55
  0_97_71  HEAD  1 98 72
  0_102_117  HEAD  1 103 118
  0_154_78  HEAD  1 155 79
  0_151_91  HEAD  1 152 92
  0_91_62  HEAD  1 92 63
  0_96_40  HEAD  1 97 41
  0_167_55  HEAD  1 168 56
  0_79_93  HEAD  1 80 94
  0_165_54  HEAD  1 166 55
  0_92_60  HEAD  1 93 61
  0_139_120  HEAD  1 140 121
  0_112_42  HEAD  1 113 43
  0_60_86  HEAD  1 61 87
  0_83_116  HEAD  1 84 117
  0_48_117  HEAD  1 49 118
  0_121_104  HEAD  1 122 105
  0_51_120  HEAD  1 52 121
  0_94_53  HEAD  1 95 54
  0_128_81  HEAD  1 129 82
  0_102_124  HEAD  1 103 125
  0_130_113  HEAD  1 131 114
  0_168_66  HEAD  1 169 67
  0_104_112  HEAD  1 105 113
  0_91_81  HEAD  1 92 82
  0_25_128  HEAD  1 26 129
  0_146_85  HEAD  1 147 86
  0_164_93  HEAD  1 165 94
  0_63_82  HEAD  1 64 83
  0_88_107  HEAD  1 89 108
  0_89_79  HEAD  1 90 80
  0_112_10  HEAD  1 113 11
  0_85_86  HEAD  1 86 87
  0_142_112  HEAD  1 143 113
  0_129_97  HEAD  1 130 98
  0_42_121  HEAD  1 43 122
  0_100_94  HEAD  1 101 95
  0_64_108  HEAD  1 65 109
  0_116_90  HEAD  1 117 91
  0_81_93  HEAD  1 82 94
  0_43_126  HEAD  1 44 127
  0_92_50  HEAD  1 93 51
  0_118_84  HEAD  1 119 85
  0_159_122  HEAD  1 160 123
  0_107_128  HEAD  1 108 129
  0_114_74  HEAD  1 115 75
  0_102_20  HEAD  1 103 21
  0_111_55  HEAD  1 112 56
  0_149_114  HEAD  1 150 115
  0_98_102  HEAD  1 99 103
  0_130_48  HEAD  1 131 49
  0_39_125  HEAD  1 40 126
  0_123_127  HEAD  1 124 128
  0_32_123  HEAD  1 33 124
  0_130_71  HEAD  1 131 72
  0_116_122  HEAD  1 117 123
  0_101_125  HEAD  1 102 126
  0_49_96  HEAD  1 50 97
  0_102_109  HEAD  1 103 110
  0_130_115  HEAD  1 131 116
  0_173_52  HEAD  1 174 53
  0_97_36  HEAD  1 98 37
  0_113_77  HEAD  1 114 78
  0_86_88  HEAD  1 87 89
  0_126_69  HEAD  1 127 70
  0_92_103  HEAD  1 93 104
  0_160_112  HEAD  1 161 113
  0_126_95  HEAD  1 127 96
  0_157_61  HEAD  1 158 62
  0_92_45  HEAD  1 93 46
  0_133_66  HEAD  1 134 67
  0_58_89  HEAD  1 59 90
  0_159_58  HEAD  1 160 59
  0_36_126  HEAD  1 37 127
  0_110_104  HEAD  1 111 105
  0_168_63  HEAD  1 169 64
  0_98_113  HEAD  1 99 114
  0_136_69  HEAD  1 137 70
  0_114_7  HEAD  1 115 8
  0_132_112  HEAD  1 133 113
  0_86_94  HEAD  1 87 95
  0_148_55  HEAD  1 149 56
  0_171_52  HEAD  1 172 53
  0_150_77  HEAD  1 151 78
  0_153_113  HEAD  1 154 114
  0_118_70  HEAD  1 119 71
  0_29_120  HEAD  1 30 121
  0_127_68  HEAD  1 128 69
  0_112_28  HEAD  1 113 29
  0_158_89  HEAD  1 159 90
  0_71_76  HEAD  1 72 77
  0_32_118  HEAD  1 33 119
  0_86_101  HEAD  1 87 102
  0_41_121  HEAD  1 42 122
  0_100_30  HEAD  1 101 31
  0_123_83  HEAD  1 124 84
  0_67_88  HEAD  1 68 89
  0_155_74  HEAD  1 156 75
  0_74_92  HEAD  1 75 93
  0_136_57  HEAD  1 137 58
  0_87_120  HEAD  1 88 121
  0_154_86  HEAD  1 155 87
  0_127_82  HEAD  1 128 83
  0_132_48  HEAD  1 133 49
  0_69_81  HEAD  1 70 82
  0_142_129  HEAD  1 143 130
  0_152_79  HEAD  1 153 80
  0_116_78  HEAD  1 117 79
  0_62_115  HEAD  1 63 116
  0_75_102  HEAD  1 76 103
  0_81_105  HEAD  1 82 106
  0_112_107  HEAD  1 113 108
  0_114_41  HEAD  1 115 42
  0_166_53  HEAD  1 167 54
  0_136_84  HEAD  1 137 85
  0_48_97  HEAD  1 49 98
  0_90_129  HEAD  1 91 130
  0_80_69  HEAD  1 81 70
  0_86_70  HEAD  1 87 71
  0_157_111  HEAD  1 158 112
  0_79_74  HEAD  1 80 75
  0_88_101  HEAD  1 89 102
  0_121_79  HEAD  1 122 80
  0_52_109  HEAD  1 53 110
  0_151_101  HEAD  1 152 102
  0_63_108  HEAD  1 64 109
  0_111_38  HEAD  1 112 39
  0_101_22  HEAD  1 102 23
  0_96_85  HEAD  1 97 86
  0_89_48  HEAD  1 90 49
  0_103_124  HEAD  1 104 125
  0_85_120  HEAD  1 86 121
  0_115_59  HEAD  1 116 60
  0_73_88  HEAD  1 74 89
  0_117_52  HEAD  1 118 53
  0_88_110  HEAD  1 89 111
  0_42_128  HEAD  1 43 129
  0_107_107  HEAD  1 108 108
  0_152_99  HEAD  1 153 100
  0_147_103  HEAD  1 148 104
  0_98_92  HEAD  1 99 93
  0_138_112  HEAD  1 139 113
  0_80_123  HEAD  1 81 124
  0_70_80  HEAD  1 71 81
  0_134_91  HEAD  1 135 92
  0_94_77  HEAD  1 95 78
  0_125_67  HEAD  1 126 68
  0_135_74  HEAD  1 136 75
  0_139_53  HEAD  1 140 54
  0_158_77  HEAD  1 159 78
  0_118_50  HEAD  1 119 51
  0_99_101  HEAD  1 100 102
  0_59_100  HEAD  1 60 101
  0_128_62  HEAD  1 129 63
  0_53_96  HEAD  1 54 97
  0_163_103  HEAD  1 164 104
  0_137_117  HEAD  1 138 118
  0_100_37  HEAD  1 101 38
  0_119_103  HEAD  1 120 104
  0_144_110  HEAD  1 145 111
  0_107_49  HEAD  1 108 50
  0_57_82  HEAD  1 58 83
  0_141_53  HEAD  1 142 54
  0_136_48  HEAD  1 137 49
  0_97_80  HEAD  1 98 81
  0_92_41  HEAD  1 93 42
  0_159_84  HEAD  1 160 85
  0_124_64  HEAD  1 125 65
  0_67_103  HEAD  1 68 104
  0_79_75  HEAD  1 80 76
  0_153_98  HEAD  1 154 99
  0_86_67  HEAD  1 87 68
  0_117_56  HEAD  1 118 57
  0_117_99  HEAD  1 118 100
  0_131_116  HEAD  1 132 117
  0_149_98  HEAD  1 150 99
  0_83_92  HEAD  1 84 93
  0_147_108  HEAD  1 148 109
  0_141_56  HEAD  1 142 57
  0_146_61  HEAD  1 147 62
  0_147_116  HEAD  1 148 117
  0_130_129  HEAD  1 131 130
  0_139_60  HEAD  1 140 61
  0_115_110  HEAD  1 116 111
  0_55_101  HEAD  1 56 102
  0_64_110  HEAD  1 65 111
  0_107_29  HEAD  1 108 30
  0_143_111  HEAD  1 144 112
  0_100_26  HEAD  1 101 27
  0_141_58  HEAD  1 142 59
  0_103_63  HEAD  1 104 64
  0_167_63  HEAD  1 168 64
  0_82_127  HEAD  1 83 128
  0_115_43  HEAD  1 116 44
  0_67_79  HEAD  1 68 80
  0_140_107  HEAD  1 141 108
  0_117_71  HEAD  1 118 72
  0_40_108  HEAD  1 41 109
  0_116_36  HEAD  1 117 37
END continuous  FILEOUT  heads_pcmap.csv

