pcf
* control data
             restart          estimation
       151       122         1         0         1         0
         1         1              single               point         1         0         0          noobsreref
   2.000000E+01  -3.000000E+00   3.000000E-01   1.000000E-02        -7       999          lamforgive        noderforgive
   1.000000E+01   1.000000E+01   1.000000E-03         0         0
   1.000000E-01         1   1.100000E+00               noaui          nosenreuse        noboundscale
         0   1.000000E-02         3         3   1.000000E-02         3   0.000000E+00         1  -1.000000E+00
         0         0         0         0             jcosave          verboserec          jcosaveitn          reisaveitn          parsaveitn        noparsaverun
* singular value decomposition
         1
  10000000    1.000000E-06
1
* parameter groups
 kp_inst:0               relative              1.0000000000E-02       0  switch                2.0000000000E+00       parabolic              1.0000000000E-05       5.0000000000E-01       smaller              
* parameter data
  kp_inst:0_i:12_j:124   log                    factor                1.9238756592E+00      1.0000000000E-02      1.0000000000E+02       kp_inst:0             1.0000000000E+00      0.0000000000E+00       1          
  kp_inst:0_i:28_j:124   log                    factor                7.8208868013E-01      1.0000000000E-02      1.0000000000E+02       kp_inst:0             1.0000000000E+00      0.0000000000E+00       1          
  kp_inst:0_i:36_j:116   log                    factor                9.6308939349E-01      1.0000000000E-02      1.0000000000E+02       kp_inst:0             1.0000000000E+00      0.0000000000E+00       1          
  kp_inst:0_i:36_j:124   log                    factor                1.9898392813E+00      1.0000000000E-02      1.0000000000E+02       kp_inst:0             1.0000000000E+00      0.0000000000E+00       1          
  kp_inst:0_i:44_j:100   log                    factor                2.1033667291E+00      1.0000000000E-02      1.0000000000E+02       kp_inst:0             1.0000000000E+00      0.0000000000E+00       1          
  kp_inst:0_i:44_j:108   log                    factor                4.3127372508E-01      1.0000000000E-02      1.0000000000E+02       kp_inst:0             1.0000000000E+00      0.0000000000E+00       1          
  kp_inst:0_i:44_j:116   log                    factor                4.7434355051E-01      1.0000000000E-02      1.0000000000E+02       kp_inst:0             1.0000000000E+00      0.0000000000E+00       1          
  kp_inst:0_i:44_j:124   log                    factor                1.6970787677E+00      1.0000000000E-02      1.0000000000E+02       kp_inst:0             1.0000000000E+00      0.0000000000E+00       1          
  kp_inst:0_i:52_j:92    log                    factor                5.2315333716E+00      1.0000000000E-02      1.0000000000E+02       kp_inst:0             1.0000000000E+00      0.0000000000E+00       1          
  kp_inst:0_i:52_j:100   log                    factor                5.6877958497E+00      1.0000000000E-02      1.0000000000E+02       kp_inst:0             1.0000000000E+00      0.0000000000E+00       1          
  kp_inst:0_i:52_j:108   log                    factor                5.5416615721E+01      1.0000000000E-02      1.0000000000E+02       kp_inst:0             1.0000000000E+00      0.0000000000E+00       1          
  kp_inst:0_i:52_j:116   log                    factor                1.8351137953E+00      1.0000000000E-02      1.0000000000E+02       kp_inst:0             1.0000000000E+00      0.0000000000E+00       1          
  kp_inst:0_i:52_j:124   log                    factor                2.2936545031E+00      1.0000000000E-02      1.0000000000E+02       kp_inst:0             1.0000000000E+00      0.0000000000E+00       1          
  kp_inst:0_i:60_j:76    log                    factor                1.1456448311E-02      1.0000000000E-02      1.0000000000E+02       kp_inst:0             1.0000000000E+00      0.0000000000E+00       1          
  kp_inst:0_i:60_j:84    log                    factor                1.0000000000E+02      1.0000000000E-02      1.0000000000E+02       kp_inst:0             1.0000000000E+00      0.0000000000E+00       1          
  kp_inst:0_i:60_j:92    log                    factor                1.2634265528E+00      1.0000000000E-02      1.0000000000E+02       kp_inst:0             1.0000000000E+00      0.0000000000E+00       1          
  kp_inst:0_i:60_j:100   log                    factor                2.7024707370E-01      1.0000000000E-02      1.0000000000E+02       kp_inst:0             1.0000000000E+00      0.0000000000E+00       1          
  kp_inst:0_i:60_j:108   log                    factor                6.8449613463E+00      1.0000000000E-02      1.0000000000E+02       kp_inst:0             1.0000000000E+00      0.0000000000E+00       1          
  kp_inst:0_i:60_j:116   log                    factor                1.0005781159E-01      1.0000000000E-02      1.0000000000E+02       kp_inst:0             1.0000000000E+00      0.0000000000E+00       1          
  kp_inst:0_i:60_j:124   log                    factor                1.3565568540E-01      1.0000000000E-02      1.0000000000E+02       kp_inst:0             1.0000000000E+00      0.0000000000E+00       1          
  kp_inst:0_i:68_j:76    log                    factor                2.0348856071E-02      1.0000000000E-02      1.0000000000E+02       kp_inst:0             1.0000000000E+00      0.0000000000E+00       1          
  kp_inst:0_i:68_j:84    log                    factor                1.0000000000E-02      1.0000000000E-02      1.0000000000E+02       kp_inst:0             1.0000000000E+00      0.0000000000E+00       1          
  kp_inst:0_i:68_j:92    log                    factor                1.0000000000E+02      1.0000000000E-02      1.0000000000E+02       kp_inst:0             1.0000000000E+00      0.0000000000E+00       1          
  kp_inst:0_i:68_j:100   log                    factor                1.0192013729E+01      1.0000000000E-02      1.0000000000E+02       kp_inst:0             1.0000000000E+00      0.0000000000E+00       1          
  kp_inst:0_i:68_j:108   log                    factor                2.9426865212E+00      1.0000000000E-02      1.0000000000E+02       kp_inst:0             1.0000000000E+00      0.0000000000E+00       1          
  kp_inst:0_i:68_j:116   log                    factor                7.8300944367E+00      1.0000000000E-02      1.0000000000E+02       kp_inst:0             1.0000000000E+00      0.0000000000E+00       1          
  kp_inst:0_i:68_j:124   log                    factor                4.2791252651E+00      1.0000000000E-02      1.0000000000E+02       kp_inst:0             1.0000000000E+00      0.0000000000E+00       1          
  kp_inst:0_i:76_j:68    log                    factor                1.0849641794E+00      1.0000000000E-02      1.0000000000E+02       kp_inst:0             1.0000000000E+00      0.0000000000E+00       1          
  kp_inst:0_i:76_j:76    log                    factor                9.5173929359E+00      1.0000000000E-02      1.0000000000E+02       kp_inst:0             1.0000000000E+00      0.0000000000E+00       1          
  kp_inst:0_i:76_j:84    log                    factor                7.3660218029E+00      1.0000000000E-02      1.0000000000E+02       kp_inst:0             1.0000000000E+00      0.0000000000E+00       1          
  kp_inst:0_i:76_j:92    log                    factor                1.0000000000E+02      1.0000000000E-02      1.0000000000E+02       kp_inst:0             1.0000000000E+00      0.0000000000E+00       1          
  kp_inst:0_i:76_j:100   log                    factor                7.8982340658E-02      1.0000000000E-02      1.0000000000E+02       kp_inst:0             1.0000000000E+00      0.0000000000E+00       1          
  kp_inst:0_i:76_j:108   log                    factor                1.0000000000E+02      1.0000000000E-02      1.0000000000E+02       kp_inst:0             1.0000000000E+00      0.0000000000E+00       1          
  kp_inst:0_i:76_j:116   log                    factor                1.0000000000E-02      1.0000000000E-02      1.0000000000E+02       kp_inst:0             1.0000000000E+00      0.0000000000E+00       1          
  kp_inst:0_i:76_j:124   log                    factor                6.1810178816E-02      1.0000000000E-02      1.0000000000E+02       kp_inst:0             1.0000000000E+00      0.0000000000E+00       1          
  kp_inst:0_i:84_j:68    log                    factor                1.0203472539E-01      1.0000000000E-02      1.0000000000E+02       kp_inst:0             1.0000000000E+00      0.0000000000E+00       1          
  kp_inst:0_i:84_j:76    log                    factor                1.0000000000E+02      1.0000000000E-02      1.0000000000E+02       kp_inst:0             1.0000000000E+00      0.0000000000E+00       1          
  kp_inst:0_i:84_j:84    log                    factor                1.0000000000E-02      1.0000000000E-02      1.0000000000E+02       kp_inst:0             1.0000000000E+00      0.0000000000E+00       1          
  kp_inst:0_i:84_j:92    log                    factor                1.0000000000E+02      1.0000000000E-02      1.0000000000E+02       kp_inst:0             1.0000000000E+00      0.0000000000E+00       1          
  kp_inst:0_i:84_j:100   log                    factor                2.7889003706E+00      1.0000000000E-02      1.0000000000E+02       kp_inst:0             1.0000000000E+00      0.0000000000E+00       1          
  kp_inst:0_i:84_j:108   log                    factor                2.4966691790E-01      1.0000000000E-02      1.0000000000E+02       kp_inst:0             1.0000000000E+00      0.0000000000E+00       1          
  kp_inst:0_i:84_j:116   log                    factor                2.8555909703E-01      1.0000000000E-02      1.0000000000E+02       kp_inst:0             1.0000000000E+00      0.0000000000E+00       1          
  kp_inst:0_i:84_j:124   log                    factor                1.1970720755E+00      1.0000000000E-02      1.0000000000E+02       kp_inst:0             1.0000000000E+00      0.0000000000E+00       1          
  kp_inst:0_i:92_j:44    log                    factor                1.0000000000E+02      1.0000000000E-02      1.0000000000E+02       kp_inst:0             1.0000000000E+00      0.0000000000E+00       1          
  kp_inst:0_i:92_j:52    log                    factor                1.9799170702E+00      1.0000000000E-02      1.0000000000E+02       kp_inst:0             1.0000000000E+00      0.0000000000E+00       1          
  kp_inst:0_i:92_j:60    log                    factor                1.0000000000E+02      1.0000000000E-02      1.0000000000E+02       kp_inst:0             1.0000000000E+00      0.0000000000E+00       1          
  kp_inst:0_i:92_j:68    log                    factor                2.6979879149E+01      1.0000000000E-02      1.0000000000E+02       kp_inst:0             1.0000000000E+00      0.0000000000E+00       1          
  kp_inst:0_i:92_j:76    log                    factor                3.6882470184E+01      1.0000000000E-02      1.0000000000E+02       kp_inst:0             1.0000000000E+00      0.0000000000E+00       1          
  kp_inst:0_i:92_j:84    log                    factor                2.3388372387E+01      1.0000000000E-02      1.0000000000E+02       kp_inst:0             1.0000000000E+00      0.0000000000E+00       1          
  kp_inst:0_i:92_j:92    log                    factor                3.8460949356E-02      1.0000000000E-02      1.0000000000E+02       kp_inst:0             1.0000000000E+00      0.0000000000E+00       1          
  kp_inst:0_i:92_j:100   log                    factor                1.0000000000E+02      1.0000000000E-02      1.0000000000E+02       kp_inst:0             1.0000000000E+00      0.0000000000E+00       1          
  kp_inst:0_i:92_j:108   log                    factor                2.9086000014E+00      1.0000000000E-02      1.0000000000E+02       kp_inst:0             1.0000000000E+00      0.0000000000E+00       1          
  kp_inst:0_i:92_j:116   log                    factor                2.9207877602E+00      1.0000000000E-02      1.0000000000E+02       kp_inst:0             1.0000000000E+00      0.0000000000E+00       1          
  kp_inst:0_i:92_j:124   log                    factor                2.1800527389E-01      1.0000000000E-02      1.0000000000E+02       kp_inst:0             1.0000000000E+00      0.0000000000E+00       1          
  kp_inst:0_i:100_j:28   log                    factor                9.5866749005E+00      1.0000000000E-02      1.0000000000E+02       kp_inst:0             1.0000000000E+00      0.0000000000E+00       1          
  kp_inst:0_i:100_j:36   log                    factor                1.1591378838E+00      1.0000000000E-02      1.0000000000E+02       kp_inst:0             1.0000000000E+00      0.0000000000E+00       1          
  kp_inst:0_i:100_j:44   log                    factor                2.9048853745E-01      1.0000000000E-02      1.0000000000E+02       kp_inst:0             1.0000000000E+00      0.0000000000E+00       1          
  kp_inst:0_i:100_j:52   log                    factor                4.0292480092E-01      1.0000000000E-02      1.0000000000E+02       kp_inst:0             1.0000000000E+00      0.0000000000E+00       1          
  kp_inst:0_i:100_j:60   log                    factor                5.1765450750E-02      1.0000000000E-02      1.0000000000E+02       kp_inst:0             1.0000000000E+00      0.0000000000E+00       1          
  kp_inst:0_i:100_j:68   log                    factor                7.7292614857E+00      1.0000000000E-02      1.0000000000E+02       kp_inst:0             1.0000000000E+00      0.0000000000E+00       1          
  kp_inst:0_i:100_j:76   log                    factor                4.0551787273E-01      1.0000000000E-02      1.0000000000E+02       kp_inst:0             1.0000000000E+00      0.0000000000E+00       1          
  kp_inst:0_i:100_j:84   log                    factor                1.2698429144E+01      1.0000000000E-02      1.0000000000E+02       kp_inst:0             1.0000000000E+00      0.0000000000E+00       1          
  kp_inst:0_i:100_j:92   log                    factor                1.0000000000E+02      1.0000000000E-02      1.0000000000E+02       kp_inst:0             1.0000000000E+00      0.0000000000E+00       1          
 kp_inst:0_i:100_j:100   log                    factor                5.2083480687E+01      1.0000000000E-02      1.0000000000E+02       kp_inst:0             1.0000000000E+00      0.0000000000E+00       1          
 kp_inst:0_i:100_j:108   log                    factor                1.0000000000E+02      1.0000000000E-02      1.0000000000E+02       kp_inst:0             1.0000000000E+00      0.0000000000E+00       1          
 kp_inst:0_i:100_j:116   log                    factor                1.0000000000E+02      1.0000000000E-02      1.0000000000E+02       kp_inst:0             1.0000000000E+00      0.0000000000E+00       1          
 kp_inst:0_i:100_j:124   log                    factor                2.3271158277E+00      1.0000000000E-02      1.0000000000E+02       kp_inst:0             1.0000000000E+00      0.0000000000E+00       1          
  kp_inst:0_i:108_j:12   log                    factor                2.3804551315E+00      1.0000000000E-02      1.0000000000E+02       kp_inst:0             1.0000000000E+00      0.0000000000E+00       1          
  kp_inst:0_i:108_j:20   log                    factor                4.5121445068E+00      1.0000000000E-02      1.0000000000E+02       kp_inst:0             1.0000000000E+00      0.0000000000E+00       1          
  kp_inst:0_i:108_j:28   log                    factor                4.9317948186E+00      1.0000000000E-02      1.0000000000E+02       kp_inst:0             1.0000000000E+00      0.0000000000E+00       1          
  kp_inst:0_i:108_j:36   log                    factor                3.9577285154E+00      1.0000000000E-02      1.0000000000E+02       kp_inst:0             1.0000000000E+00      0.0000000000E+00       1          
  kp_inst:0_i:108_j:44   log                    factor                3.0719136237E+00      1.0000000000E-02      1.0000000000E+02       kp_inst:0             1.0000000000E+00      0.0000000000E+00       1          
  kp_inst:0_i:108_j:52   log                    factor                1.0000000000E+02      1.0000000000E-02      1.0000000000E+02       kp_inst:0             1.0000000000E+00      0.0000000000E+00       1          
  kp_inst:0_i:108_j:60   log                    factor                7.6965660370E+00      1.0000000000E-02      1.0000000000E+02       kp_inst:0             1.0000000000E+00      0.0000000000E+00       1          
  kp_inst:0_i:108_j:68   log                    factor                1.6656739741E+01      1.0000000000E-02      1.0000000000E+02       kp_inst:0             1.0000000000E+00      0.0000000000E+00       1          
  kp_inst:0_i:108_j:76   log                    factor                8.3601871576E+00      1.0000000000E-02      1.0000000000E+02       kp_inst:0             1.0000000000E+00      0.0000000000E+00       1          
  kp_inst:0_i:108_j:84   log                    factor                1.5407777561E+01      1.0000000000E-02      1.0000000000E+02       kp_inst:0             1.0000000000E+00      0.0000000000E+00       1          
  kp_inst:0_i:108_j:92   log                    factor                6.2982805224E+00      1.0000000000E-02      1.0000000000E+02       kp_inst:0             1.0000000000E+00      0.0000000000E+00       1          
 kp_inst:0_i:108_j:100   log                    factor                1.0001842238E+01      1.0000000000E-02      1.0000000000E+02       kp_inst:0             1.0000000000E+00      0.0000000000E+00       1          
 kp_inst:0_i:108_j:108   log                    factor                3.2161181872E-01      1.0000000000E-02      1.0000000000E+02       kp_inst:0             1.0000000000E+00      0.0000000000E+00       1          
 kp_inst:0_i:108_j:116   log                    factor                1.0000000000E+02      1.0000000000E-02      1.0000000000E+02       kp_inst:0             1.0000000000E+00      0.0000000000E+00       1          
 kp_inst:0_i:108_j:124   log                    factor                2.1564281874E+00      1.0000000000E-02      1.0000000000E+02       kp_inst:0             1.0000000000E+00      0.0000000000E+00       1          
  kp_inst:0_i:116_j:4    log                    factor                1.8116737845E-01      1.0000000000E-02      1.0000000000E+02       kp_inst:0             1.0000000000E+00      0.0000000000E+00       1          
  kp_inst:0_i:116_j:36   log                    factor                1.0000000000E+02      1.0000000000E-02      1.0000000000E+02       kp_inst:0             1.0000000000E+00      0.0000000000E+00       1          
  kp_inst:0_i:116_j:44   log                    factor                2.3398068065E+01      1.0000000000E-02      1.0000000000E+02       kp_inst:0             1.0000000000E+00      0.0000000000E+00       1          
  kp_inst:0_i:116_j:52   log                    factor                1.0000000000E+02      1.0000000000E-02      1.0000000000E+02       kp_inst:0             1.0000000000E+00      0.0000000000E+00       1          
  kp_inst:0_i:116_j:60   log                    factor                5.4632239047E-01      1.0000000000E-02      1.0000000000E+02       kp_inst:0             1.0000000000E+00      0.0000000000E+00       1          
  kp_inst:0_i:116_j:68   log                    factor                7.4553837028E-01      1.0000000000E-02      1.0000000000E+02       kp_inst:0             1.0000000000E+00      0.0000000000E+00       1          
  kp_inst:0_i:116_j:76   log                    factor                1.0000000000E-02      1.0000000000E-02      1.0000000000E+02       kp_inst:0             1.0000000000E+00      0.0000000000E+00       1          
  kp_inst:0_i:116_j:84   log                    factor                1.0000000000E+02      1.0000000000E-02      1.0000000000E+02       kp_inst:0             1.0000000000E+00      0.0000000000E+00       1          
  kp_inst:0_i:116_j:92   log                    factor                6.3306455755E-01      1.0000000000E-02      1.0000000000E+02       kp_inst:0             1.0000000000E+00      0.0000000000E+00       1          
 kp_inst:0_i:116_j:100   log                    factor                1.3086785978E+00      1.0000000000E-02      1.0000000000E+02       kp_inst:0             1.0000000000E+00      0.0000000000E+00       1          
 kp_inst:0_i:116_j:108   log                    factor                3.9089489619E+01      1.0000000000E-02      1.0000000000E+02       kp_inst:0             1.0000000000E+00      0.0000000000E+00       1          
 kp_inst:0_i:116_j:116   log                    factor                3.9799443542E+00      1.0000000000E-02      1.0000000000E+02       kp_inst:0             1.0000000000E+00      0.0000000000E+00       1          
 kp_inst:0_i:116_j:124   log                    factor                5.6789755644E+01      1.0000000000E-02      1.0000000000E+02       kp_inst:0             1.0000000000E+00      0.0000000000E+00       1          
  kp_inst:0_i:124_j:52   log                    factor                1.0000000000E-02      1.0000000000E-02      1.0000000000E+02       kp_inst:0             1.0000000000E+00      0.0000000000E+00       1          
  kp_inst:0_i:124_j:60   log                    factor                8.9351737078E+00      1.0000000000E-02      1.0000000000E+02       kp_inst:0             1.0000000000E+00      0.0000000000E+00       1          
  kp_inst:0_i:124_j:68   log                    factor                1.0000000000E-02      1.0000000000E-02      1.0000000000E+02       kp_inst:0             1.0000000000E+00      0.0000000000E+00       1          
  kp_inst:0_i:124_j:76   log                    factor                1.0000000000E+02      1.0000000000E-02      1.0000000000E+02       kp_inst:0             1.0000000000E+00      0.0000000000E+00       1          
  kp_inst:0_i:124_j:84   log                    factor                1.0000000000E-02      1.0000000000E-02      1.0000000000E+02       kp_inst:0             1.0000000000E+00      0.0000000000E+00       1          
  kp_inst:0_i:124_j:92   log                    factor                3.8663841342E+00      1.0000000000E-02      1.0000000000E+02       kp_inst:0             1.0000000000E+00      0.0000000000E+00       1          
 kp_inst:0_i:124_j:100   log                    factor                2.6254273190E+01      1.0000000000E-02      1.0000000000E+02       kp_inst:0             1.0000000000E+00      0.0000000000E+00       1          
 kp_inst:0_i:124_j:108   log                    factor                3.1078496460E-01      1.0000000000E-02      1.0000000000E+02       kp_inst:0             1.0000000000E+00      0.0000000000E+00       1          
 kp_inst:0_i:124_j:116   log                    factor                1.0000000000E+02      1.0000000000E-02      1.0000000000E+02       kp_inst:0             1.0000000000E+00      0.0000000000E+00       1          
 kp_inst:0_i:124_j:124   log                    factor                8.2467152669E+00      1.0000000000E-02      1.0000000000E+02       kp_inst:0             1.0000000000E+00      0.0000000000E+00       1          
  kp_inst:0_i:132_j:52   log                    factor                9.5183133939E-02      1.0000000000E-02      1.0000000000E+02       kp_inst:0             1.0000000000E+00      0.0000000000E+00       1          
  kp_inst:0_i:132_j:60   log                    factor                4.9634082702E+01      1.0000000000E-02      1.0000000000E+02       kp_inst:0             1.0000000000E+00      0.0000000000E+00       1          
  kp_inst:0_i:132_j:68   log                    factor                1.0000000000E+02      1.0000000000E-02      1.0000000000E+02       kp_inst:0             1.0000000000E+00      0.0000000000E+00       1          
  kp_inst:0_i:132_j:76   log                    factor                9.4104155142E-01      1.0000000000E-02      1.0000000000E+02       kp_inst:0             1.0000000000E+00      0.0000000000E+00       1          
  kp_inst:0_i:132_j:84   log                    factor                1.2214058620E-02      1.0000000000E-02      1.0000000000E+02       kp_inst:0             1.0000000000E+00      0.0000000000E+00       1          
  kp_inst:0_i:132_j:92   log                    factor                1.1767792448E-01      1.0000000000E-02      1.0000000000E+02       kp_inst:0             1.0000000000E+00      0.0000000000E+00       1          
 kp_inst:0_i:132_j:100   log                    factor                1.2014950890E-01      1.0000000000E-02      1.0000000000E+02       kp_inst:0             1.0000000000E+00      0.0000000000E+00       1          
 kp_inst:0_i:132_j:108   log                    factor                1.0000000000E+02      1.0000000000E-02      1.0000000000E+02       kp_inst:0             1.0000000000E+00      0.0000000000E+00       1          
 kp_inst:0_i:132_j:116   log                    factor                5.3731628082E+01      1.0000000000E-02      1.0000000000E+02       kp_inst:0             1.0000000000E+00      0.0000000000E+00       1          
 kp_inst:0_i:132_j:124   log                    factor                1.5160551498E-01      1.0000000000E-02      1.0000000000E+02       kp_inst:0             1.0000000000E+00      0.0000000000E+00       1          
  kp_inst:0_i:140_j:52   log                    factor                9.7116293736E-01      1.0000000000E-02      1.0000000000E+02       kp_inst:0             1.0000000000E+00      0.0000000000E+00       1          
  kp_inst:0_i:140_j:60   log                    factor                1.0000000000E-02      1.0000000000E-02      1.0000000000E+02       kp_inst:0             1.0000000000E+00      0.0000000000E+00       1          
  kp_inst:0_i:140_j:68   log                    factor                1.0000000000E+02      1.0000000000E-02      1.0000000000E+02       kp_inst:0             1.0000000000E+00      0.0000000000E+00       1          
  kp_inst:0_i:140_j:76   log                    factor                1.0000000000E+02      1.0000000000E-02      1.0000000000E+02       kp_inst:0             1.0000000000E+00      0.0000000000E+00       1          
  kp_inst:0_i:140_j:84   log                    factor                4.5233896502E+00      1.0000000000E-02      1.0000000000E+02       kp_inst:0             1.0000000000E+00      0.0000000000E+00       1          
  kp_inst:0_i:140_j:92   log                    factor                7.2182014758E-01      1.0000000000E-02      1.0000000000E+02       kp_inst:0             1.0000000000E+00      0.0000000000E+00       1          
 kp_inst:0_i:140_j:100   log                    factor                1.0000000000E+02      1.0000000000E-02      1.0000000000E+02       kp_inst:0             1.0000000000E+00      0.0000000000E+00       1          
 kp_inst:0_i:140_j:108   log                    factor                2.1113926238E+00      1.0000000000E-02      1.0000000000E+02       kp_inst:0             1.0000000000E+00      0.0000000000E+00       1          
 kp_inst:0_i:140_j:116   log                    factor                1.0410641706E+00      1.0000000000E-02      1.0000000000E+02       kp_inst:0             1.0000000000E+00      0.0000000000E+00       1          
 kp_inst:0_i:140_j:124   log                    factor                1.3615073808E+01      1.0000000000E-02      1.0000000000E+02       kp_inst:0             1.0000000000E+00      0.0000000000E+00       1          
  kp_inst:0_i:148_j:52   log                    factor                1.0918948057E+00      1.0000000000E-02      1.0000000000E+02       kp_inst:0             1.0000000000E+00      0.0000000000E+00       1          
  kp_inst:0_i:148_j:60   log                    factor                7.8534231810E+00      1.0000000000E-02      1.0000000000E+02       kp_inst:0             1.0000000000E+00      0.0000000000E+00       1          
  kp_inst:0_i:148_j:68   log                    factor                1.0000000000E-02      1.0000000000E-02      1.0000000000E+02       kp_inst:0             1.0000000000E+00      0.0000000000E+00       1          
  kp_inst:0_i:148_j:76   log                    factor                1.0000000000E-02      1.0000000000E-02      1.0000000000E+02       kp_inst:0             1.0000000000E+00      0.0000000000E+00       1          
  kp_inst:0_i:148_j:84   log                    factor                1.0000000000E+02      1.0000000000E-02      1.0000000000E+02       kp_inst:0             1.0000000000E+00      0.0000000000E+00       1          
  kp_inst:0_i:148_j:92   log                    factor                9.2736350310E+01      1.0000000000E-02      1.0000000000E+02       kp_inst:0             1.0000000000E+00      0.0000000000E+00       1          
 kp_inst:0_i:148_j:100   log                    factor                1.4749965347E+00      1.0000000000E-02      1.0000000000E+02       kp_inst:0             1.0000000000E+00      0.0000000000E+00       1          
 kp_inst:0_i:148_j:108   log                    factor                5.4036224831E-01      1.0000000000E-02      1.0000000000E+02       kp_inst:0             1.0000000000E+00      0.0000000000E+00       1          