BEGIN griddata
  strt  LAYERED
    INTERNAL  FACTOR  1.0
          -4.00000000      -4.00000000      -4.00000000      -4.00000000      -4.00000000      -4.00000000      -4.00000000      -4.00000000      -4.00000000      -4.00000000      -4.00000000      -4.00000000      -4.00000000      -4.00000000      -4.00000000      -4.00000000      -4.00000000      -4.00000000      -4.00000000      -4.00000000
          -4.00000000      -4.00000000      -4.00000000      -4.00000000      -4.00000000      -4.00000000      -4.00000000      -4.00000000      -4.00000000      -4.00000000      -4.00000000      -4.00000000      -4.00000000      -4.00000000      -4.00000000      -4.00000000      -4.00000000      -4.00000000      -4.00000000      -4.00000000
          -4.00000000      -4.00000000      -4.00000000      -4.00000000      -4.00000000      -4.00000000      -4.00000000      -4.00000000      -4.00000000      -4.00000000      -4.00000000      -4.00000000      -4.00000000      -4.00000000      -4.00000000      -4.00000000      -4.00000000      -4.00000000      -4.00000000      -4.00000000
          -4.00000000      -4.00000000      -4.00000000      -4.00000000      -4.00000000      -4.00000000      -4.00000000      -4.00000000      -4.00000000      -4.00000000      -4.00000000      -4.00000000      -4.00000000      -4.00000000      -4.00000000      -4.00000000      -4.00000000      -4.00000000      -4.00000000      -4.00000000
          -4.00000000      -4.00000000      -4.00000000      -4.00000000      -4.00000000      -4.00000000      -4.00000000      -4.00000000      -4.00000000      -4.00000000      -4.00000000      -4.00000000      -4.00000000      -4.00000000      -4.00000000      -4.00000000      -4.00000000      -4.00000000      -4.00000000      -4.00000000
          -4.00000000      -4.00000000      -4.00000000      -4.00000000      -4.00000000      -4.00000000      -4.00000000      -4.00000000      -4.00000000      -4.00000000      -4.00000000      -4.00000000      -4.00000000      -4.00000000      -4.00000000      -4.00000000      -4.00000000      -4.00000000      -4.00000000      -4.00000000
          -4.00000000      -4.00000000      -4.00000000      -4.00000000      -4.00000000      -4.00000000      -4.00000000      -4.00000000      -4.00000000      -4.00000000      -4.00000000      -4.00000000      -4.00000000       2.78000021       0.63000011      -1.50000000      -2.96000004      -4.50000000      -4.50000000      -3.69000006
          -3.75000000      -2.46000004      -3.55999994      -3.71999979      -4.00000000      -4.00000000      -4.00000000      -4.00000000      -4.00000000      -4.00000000
          -4.00000000      -4.00000000      -4.00000000      -4.00000000      -4.00000000      -4.00000000      -4.00000000      -4.00000000      -4.00000000      -4.00000000      -4.00000000      -4.00000000      -4.00000000      -4.00000000      -4.00000000      -4.00000000      -4.00000000      -4.00000000      -4.00000000      -4.00000000
          -4.00000000      -4.00000000      -4.00000000      -4.00000000      -4.00000000      -4.00000000      -4.00000000      -4.00000000      -4.00000000      -4.00000000      -4.00000000      -4.00000000      -4.00000000      -4.00000000      -4.00000000      -4.00000000      -4.00000000      -4.00000000      -4.00000000      -4.00000000
          -4.00000000      -4.00000000      -4.00000000      -4.00000000      -4.00000000      -4.00000000      -4.00000000      -4.00000000      -4.00000000      -4.00000000      -4.00000000      -4.00000000      -4.00000000      -4.00000000      -4.00000000      -4.00000000      -4.00000000      -4.00000000      -4.00000000      -4.00000000
          -4.00000000      -4.00000000      -4.00000000      -4.00000000      -4.00000000      -4.00000000      -4.00000000      -4.00000000      -4.00000000      -4.00000000      -4.00000000      -4.00000000      -4.00000000      -4.00000000      -4.00000000      -4.00000000      -4.00000000      -4.00000000      -4.00000000      -4.00000000
          -4.00000000      -4.00000000      -4.00000000      -4.00000000      -4.00000000      -4.00000000      -4.00000000      -4.00000000      -4.00000000      -4.00000000      -4.00000000      -4.00000000      -4.00000000      -4.00000000      -4.00000000      -4.00000000      -4.00000000      -4.00000000      -4.00000000      -4.00000000
          -4.00000000      -4.00000000      -4.00000000      -4.00000000      -4.00000000      -4.00000000      -4.00000000      -4.00000000      -4.00000000      -4.00000000      -4.00000000      -4.00000000      -4.00000000      -4.00000000      -4.00000000      -4.00000000      -4.00000000      -4.00000000      -4.00000000      -4.00000000
          -4.00000000      -4.00000000      -4.00000000      -4.00000000      -4.00000000      -4.00000000      -4.00000000      -4.00000000      -4.00000000      -4.00000000      -4.00000000      -4.00000000      -4.00000000       2.88000011       0.17000008      -1.59999990      -1.93000007      -3.82000017      -4.50000000      -4.50000000
          -4.11000013      -3.23000002      -3.59000015      -3.76999998      -4.00000000      -4.00000000      -4.00000000      -4.00000000      -4.00000000      -4.00000000
          -4.00000000      -4.00000000      -4.00000000      -4.00000000      -4.00000000      -4.00000000      -4.00000000      -4.00000000      -4.00000000      -4.00000000      -4.00000000      -4.00000000      -4.00000000      -4.00000000      -4.00000000      -4.00000000      -4.00000000      -4.00000000      -4.00000000      -4.00000000
          -4.00000000      -4.00000000      -4.00000000      -4.00000000      -4.00000000      -4.00000000      -4.00000000      -4.00000000      -4.00000000      -4.00000000      -4.00000000      -4.00000000      -4.00000000      -4.00000000      -4.00000000      -4.00000000      -4.00000000      -4.00000000      -4.00000000      -4.00000000
          -4.00000000      -4.00000000      -4.00000000      -4.00000000      -4.00000000      -4.00000000      -4.00000000      -4.00000000      -4.00000000      -4.00000000      -4.00000000      -4.00000000      -4.00000000      -4.00000000      -4.00000000      -4.00000000      -4.00000000      -4.00000000      -4.00000000      -4.00000000
          -4.00000000      -4.00000000      -4.00000000      -4.00000000      -4.00000000      -4.00000000      -4.00000000      -4.00000000      -4.00000000      -4.00000000      -4.00000000      -4.00000000      -4.00000000      -4.00000000      -4.00000000      -4.00000000      -4.00000000      -4.00000000      -4.00000000      -4.00000000
          -4.00000000      -4.00000000      -4.00000000      -4.00000000      -4.00000000      -4.00000000      -4.00000000      -4.00000000      -4.00000000      -4.00000000      -4.00000000      -4.00000000      -4.00000000      -4.00000000      -4.00000000      -4.00000000      -4.00000000      -4.00000000      -4.00000000      -4.00000000
          -4.00000000      -4.00000000      -4.00000000      -4.00000000      -4.00000000      -4.00000000      -4.00000000      -4.00000000      -4.00000000      -4.00000000      -4.00000000      -4.00000000      -4.00000000      -4.00000000      -4.00000000      -4.00000000      -4.00000000      -4.00000000      -4.00000000      -4.00000000
          -4.00000000      -4.00000000      -4.00000000      -4.00000000      -4.00000000      -4.00000000      -4.00000000      -4.00000000      -4.00000000      -4.00000000      -4.00000000      -4.00000000      -4.00000000       2.80000019       0.28000021      -1.96000004      -2.90999985      -3.07999992      -3.30999994      -3.38999987
          -1.73000002      -4.50000000      -4.50000000      -3.82000017      -4.00000000      -4.00000000      -4.00000000      -4.00000000      -4.00000000      -4.00000000
          -4.00000000      -4.00000000      -4.00000000      -4.00000000      -4.00000000      -4.00000000      -4.00000000      -4.00000000      -4.00000000      -4.00000000      -4.00000000      -4.00000000      -4.00000000      -4.00000000      -4.00000000      -4.00000000      -4.00000000      -4.00000000      -4.00000000      -4.00000000
          -4.00000000      -4.00000000      -4.00000000      -4.00000000      -4.00000000      -4.00000000      -4.00000000      -4.00000000      -4.00000000      -4.00000000      -4.00000000      -4.00000000      -4.00000000      -4.00000000      -4.00000000      -4.00000000      -4.00000000      -4.00000000      -4.00000000      -4.00000000
          -4.00000000      -4.00000000      -4.00000000      -4.00000000      -4.00000000      -4.00000000      -4.00000000      -4.00000000      -4.00000000      -4.00000000      -4.00000000      -4.00000000      -4.00000000      -4.00000000      -4.00000000      -4.00000000      -4.00000000      -4.00000000      -4.00000000      -4.00000000
          -4.00000000      -4.00000000      -4.00000000      -4.00000000      -4.00000000      -4.00000000      -4.00000000      -4.00000000      -4.00000000      -4.00000000      -4.00000000      -4.00000000      -4.00000000      -4.00000000      -4.00000000      -4.00000000      -4.00000000      -4.00000000      -4.00000000      -4.00000000
          -4.00000000      -4.00000000      -4.00000000      -4.00000000      -4.00000000      -4.00000000      -4.00000000      -4.00000000      -4.00000000      -4.00000000      -4.00000000      -4.00000000      -4.00000000      -4.00000000      -4.00000000      -4.00000000      -4.00000000      -4.00000000      -4.00000000      -4.00000000
          -4.00000000      -4.00000000      -4.00000000      -4.00000000      -4.00000000      -4.00000000      -4.00000000      -4.00000000      -4.00000000      -4.00000000      -4.00000000      -4.00000000      -4.00000000      -4.00000000      -4.00000000      -4.00000000      -4.00000000      -4.00000000      -4.00000000      -4.00000000
          -4.00000000      -4.00000000      -4.00000000      -4.00000000      -4.00000000      -4.00000000      -4.00000000      -4.00000000      -4.00000000      -4.00000000      -4.00000000      -4.00000000      -4.00000000       3.46000004       0.28000021      -2.70000005      -3.27999973       1.46000004       0.34000015       1.80000019
           9.72999954      -0.59999990      -2.27999997      -4.07000017      -4.00000000      -4.00000000      -4.00000000      -4.00000000      -4.00000000      -4.00000000
          -4.00000000      -4.00000000      -4.00000000      -4.00000000      -4.00000000      -4.00000000      -4.00000000      -4.00000000      -4.00000000      -4.00000000      -4.00000000      -4.00000000      -4.00000000      -4.00000000      -4.00000000      -4.00000000      -4.00000000      -4.00000000      -4.00000000      -4.00000000
          -4.00000000      -4.00000000      -4.00000000      -4.00000000      -4.00000000      -4.00000000      -4.00000000      -4.00000000      -4.00000000      -4.00000000      -4.00000000      -4.00000000      -4.00000000      -4.00000000      -4.00000000      -4.00000000      -4.00000000      -4.00000000      -4.00000000      -4.00000000
          -4.00000000      -4.00000000      -4.00000000      -4.00000000      -4.00000000      -4.00000000      -4.00000000      -4.00000000      -4.00000000      -4.00000000      -4.00000000      -4.00000000      -4.00000000      -4.00000000      -4.00000000      -4.00000000      -4.00000000      -4.00000000      -4.00000000      -4.00000000
          -4.00000000      -4.00000000      -4.00000000      -4.00000000      -4.00000000      -4.00000000      -4.00000000      -4.00000000      -4.00000000      -4.00000000      -4.00000000      -4.00000000      -4.00000000      -4.00000000      -4.00000000      -4.00000000      -4.00000000      -4.00000000      -4.00000000      -4.00000000
          -4.00000000      -4.00000000      -4.00000000      -4.00000000      -4.00000000      -4.00000000      -4.00000000      -4.00000000      -4.00000000      -4.00000000      -4.00000000      -4.00000000      -4.00000000      -4.00000000      -4.00000000      -4.00000000      -4.00000000      -4.00000000      -4.00000000      -4.00000000
          -4.00000000      -4.00000000      -4.00000000      -4.00000000      -4.00000000      -4.00000000      -4.00000000      -4.00000000      -4.00000000      -4.00000000      -4.00000000      -4.00000000      -4.00000000      -4.00000000      -4.00000000      -4.00000000      -4.00000000      -4.00000000      -4.00000000      -4.00000000
          -4.00000000      -4.00000000      -4.00000000      -4.00000000      -4.00000000      -4.00000000      -4.00000000      -4.00000000      -4.00000000      -4.00000000      -4.00000000      -4.00000000      -4.00000000       2.07000017      -0.45000005      -3.11999989       1.32000017      10.06000042      33.18000031      36.36000061
          38.31000137      43.22000122      46.15000153      -1.00000000      -4.00000000      -4.00000000      -4.00000000      -4.00000000      -4.00000000      -4.00000000
          -4.00000000      -4.00000000      -4.00000000      -4.00000000      -4.00000000      -4.00000000      -4.00000000      -4.00000000      -4.00000000      -4.00000000      -4.00000000      -4.00000000      -4.00000000      -4.00000000      -4.00000000      -4.00000000      -4.00000000      -4.00000000      -4.00000000      -4.00000000
          -4.00000000      -4.00000000      -4.00000000      -4.00000000      -4.00000000      -4.00000000      -4.00000000      -4.00000000      -4.00000000      -4.00000000      -4.00000000      -4.00000000      -4.00000000      -4.00000000      -4.00000000      -4.00000000      -4.00000000      -4.00000000      -4.00000000      -4.00000000
          -4.00000000      -4.00000000      -4.00000000      -4.00000000      -4.00000000      -4.00000000      -4.00000000      -4.00000000      -4.00000000      -4.00000000      -4.00000000      -4.00000000      -4.00000000      -4.00000000      -4.00000000      -4.00000000      -4.00000000      -4.00000000      -4.00000000      -4.00000000
          -4.00000000      -4.00000000      -4.00000000      -4.00000000      -4.00000000      -4.00000000      -4.00000000      -4.00000000      -4.00000000      -4.00000000      -4.00000000      -4.00000000      -4.00000000      -4.00000000      -4.00000000      -4.00000000      -4.00000000      -4.00000000      -4.00000000      -4.00000000
          -4.00000000      -4.00000000      -4.00000000      -4.00000000      -4.00000000      -4.00000000      -4.00000000      -4.00000000      -4.00000000      -4.00000000      -4.00000000      -4.00000000      -4.00000000      -4.00000000      -4.00000000      -4.00000000      -4.00000000      -4.00000000      -4.00000000      -4.00000000
          -4.00000000      -4.00000000      -4.00000000      -4.00000000      -4.00000000      -4.00000000      -4.00000000      -4.00000000      -4.00000000      -4.00000000      -4.00000000      -4.00000000      -4.00000000      -4.00000000      -4.00000000      -4.00000000      -4.00000000      -4.00000000      -4.00000000      -4.00000000
          -4.00000000      -4.00000000      -4.00000000      -4.00000000      -4.00000000      -4.00000000      -4.00000000      -4.00000000      -4.00000000      -4.00000000      -4.00000000      -4.00000000      -4.00000000      -0.75000000      -2.07999992      -3.88999987       1.92000008      33.95000076      35.27000046      33.50000000
          36.31000137      41.90000153      43.77000046      43.75000000      30.33000183      -3.76999998      -4.00000000      -4.00000000      -4.00000000      -4.00000000
          -4.00000000      -4.00000000      -4.00000000      -4.00000000      -4.00000000      -4.00000000      -4.00000000      -4.00000000      -4.00000000      -4.00000000      -4.00000000      -4.00000000      -4.00000000      -4.00000000      -4.00000000      -4.00000000      -4.00000000      -4.00000000      -4.00000000      -4.00000000
          -4.00000000      -4.00000000      -4.00000000      -4.00000000      -4.00000000      -4.00000000      -4.00000000      -4.00000000      -4.00000000      -4.00000000      -4.00000000      -4.00000000      -4.00000000      -4.00000000      -4.00000000      -4.00000000      -4.00000000      -4.00000000      -4.00000000      -4.00000000
          -4.00000000      -4.00000000      -4.00000000      -4.00000000      -4.00000000      -4.00000000      -4.00000000      -4.00000000      -4.00000000      -4.00000000      -4.00000000      -4.00000000      -4.00000000      -4.00000000      -4.00000000      -4.00000000      -4.00000000      -4.00000000      -4.00000000      -4.00000000
          -4.00000000      -4.00000000      -4.00000000      -4.00000000      -4.00000000      -4.00000000      -4.00000000      -4.00000000      -4.00000000      -4.00000000      -4.00000000      -4.00000000      -4.00000000      -4.00000000      -4.00000000      -4.00000000      -4.00000000      -4.00000000      -4.00000000      -4.00000000
          -4.00000000      -4.00000000      -4.00000000      -4.00000000      -4.00000000      -4.00000000      -4.00000000      -4.00000000      -4.00000000      -4.00000000      -4.00000000      -4.00000000      -4.00000000      -4.00000000      -4.00000000      -4.00000000      -4.00000000      -4.00000000      -4.00000000      -4.00000000
          -4.00000000      -4.00000000      -4.00000000      -4.00000000      -4.00000000      -4.00000000      -4.00000000      -4.00000000      -4.00000000      -4.00000000      -4.00000000      -4.00000000      -4.00000000      -4.00000000      -4.00000000      -4.00000000      -4.00000000      -4.00000000      -4.00000000      -4.00000000
          -4.00000000      -4.00000000      -4.00000000      -4.00000000      -4.00000000      -4.00000000      -4.00000000      -4.00000000      -4.00000000      -4.00000000      -4.00000000      -4.00000000      -4.00000000       0.98000002      -2.63000011      -3.88999987      -3.92999983       3.78000021      34.40000153      36.27000046
          37.50000000      35.40000153      46.50000000      46.88000107      49.25000000      53.18000031      46.65000153      21.96999931      -4.00000000      -4.00000000
          -4.00000000      -4.00000000      -4.00000000      -4.00000000      -4.00000000      -4.00000000      -4.00000000      -4.00000000      -4.00000000      -4.00000000      -4.00000000      -4.00000000      -4.00000000      -4.00000000      -4.00000000      -4.00000000      -4.00000000      -4.00000000      -4.00000000      -4.00000000
          -4.00000000      -4.00000000      -4.00000000      -4.00000000      -4.00000000      -4.00000000      -4.00000000      -4.00000000      -4.00000000      -4.00000000      -4.00000000      -4.00000000      -4.00000000      -4.00000000      -4.00000000      -4.00000000      -4.00000000      -4.00000000      -4.00000000      -4.00000000
          -4.00000000      -4.00000000      -4.00000000      -4.00000000      -4.00000000      -4.00000000      -4.00000000      -4.00000000      -4.00000000      -4.00000000      -4.00000000      -4.00000000      -4.00000000      -4.00000000      -4.00000000      -4.00000000      -4.00000000      -4.00000000      -4.00000000      -4.00000000
          -4.00000000      -4.00000000      -4.00000000      -4.00000000      -4.00000000      -4.00000000      -4.00000000      -4.00000000      -4.00000000      -4.00000000      -4.00000000      -4.00000000      -4.00000000      -4.00000000      -4.00000000      -4.00000000      -4.00000000      -4.00000000      -4.00000000      -4.00000000
          -4.00000000      -4.00000000      -4.00000000      -4.00000000      -4.00000000      -4.00000000      -4.00000000      -4.00000000      -4.00000000      -4.00000000      -4.00000000      -4.00000000      -4.00000000      -4.00000000      -4.00000000      -4.00000000      -4.00000000      -4.00000000      -4.00000000      -4.00000000
          -4.00000000      -4.00000000      -4.00000000      -4.00000000      -4.00000000      -4.00000000      -4.00000000      -4.00000000      -4.00000000      -4.00000000      -4.00000000      -4.00000000      -4.00000000      -4.00000000      -4.00000000      -4.00000000      -4.00000000      -4.00000000      -4.00000000      -4.00000000
          -4.00000000      -4.00000000      -4.00000000      -4.00000000      -4.00000000      -4.00000000      -4.00000000      -4.00000000      -4.00000000      -4.00000000      -4.00000000      -4.00000000      -4.00000000       2.36000013      -2.05999994      -3.92999983      -3.92999983       7.56000042      36.61000061      43.70000076
          49.96609879      40.40999985      51.15999985      50.00000000      50.84000015      52.90999985      42.40999985      41.43000031      -4.00000000      -4.00000000
          -4.00000000      -4.00000000      -4.00000000      -4.00000000      -4.00000000      -4.00000000      -4.00000000      -4.00000000      -4.00000000      -4.00000000      -4.00000000      -4.00000000      -4.00000000      -4.00000000      -4.00000000      -4.00000000      -4.00000000      -4.00000000      -4.00000000      -4.00000000
          -4.00000000      -4.00000000      -4.00000000      -4.00000000      -4.00000000      -4.00000000      -4.00000000      -4.00000000      -4.00000000      -4.00000000      -4.00000000      -4.00000000      -4.00000000      -4.00000000      -4.00000000      -4.00000000      -4.00000000      -4.00000000      -4.00000000      -4.00000000
          -4.00000000      -4.00000000      -4.00000000      -4.00000000      -4.00000000      -4.00000000      -4.00000000      -4.00000000      -4.00000000      -4.00000000      -4.00000000      -4.00000000      -4.00000000      -4.00000000      -4.00000000      -4.00000000      -4.00000000      -4.00000000      -4.00000000      -4.00000000
          -4.00000000      -4.00000000      -4.00000000      -4.00000000      -4.00000000      -4.00000000      -4.00000000      -4.00000000      -4.00000000      -4.00000000      -4.00000000      -4.00000000      -4.00000000      -4.00000000      -4.00000000      -4.00000000      -4.00000000      -4.00000000      -4.00000000      -4.00000000
          -4.00000000      -4.00000000      -4.00000000      -4.00000000      -4.00000000      -4.00000000      -4.00000000      -4.00000000      -4.00000000      -4.00000000      -4.00000000      -4.00000000      -4.00000000      -4.00000000      -4.00000000      -4.00000000      -4.00000000      -4.00000000      -4.00000000      -4.00000000
          -4.00000000      -4.00000000      -4.00000000      -4.00000000      -4.00000000      -4.00000000      -4.00000000      -4.00000000      -4.00000000      -4.00000000      -4.00000000      -4.00000000      -4.00000000      -4.00000000      -4.00000000      -4.00000000      -4.00000000      -4.00000000      -4.00000000      -4.00000000
          -4.00000000      -4.00000000      -4.00000000      -4.00000000      -4.00000000      -4.00000000      -4.00000000      -4.00000000      -4.00000000      -4.00000000      -4.00000000      -4.00000000      -4.00000000       0.84000015      -0.57999992      -3.92999983      -3.92999983      -3.92999983      39.02000046      44.15999985
          41.47000122      50.11000061      37.63000107      44.84000015      47.50000000      35.50000000      39.11000061      42.29000092      32.93000031      -4.00000000
          -4.00000000      -4.00000000      -4.00000000      -4.00000000      -4.00000000      -4.00000000      -4.00000000      -4.00000000      -4.00000000      -4.00000000      -4.00000000      -4.00000000      -4.00000000      -4.00000000      -4.00000000      -4.00000000      -4.00000000      -4.00000000      -4.00000000      -4.00000000
          -4.00000000      -4.00000000      -4.00000000      -4.00000000      -4.00000000      -4.00000000      -4.00000000      -4.00000000      -4.00000000      -4.00000000      -4.00000000      -4.00000000      -4.00000000      -4.00000000      -4.00000000      -4.00000000      -4.00000000      -4.00000000      -4.00000000      -4.00000000
          -4.00000000      -4.00000000      -4.00000000      -4.00000000      -4.00000000      -4.00000000      -4.00000000      -4.00000000      -4.00000000      -4.00000000      -4.00000000      -4.00000000      -4.00000000      -4.00000000      -4.00000000      -4.00000000      -4.00000000      -4.00000000      -4.00000000      -4.00000000
          -4.00000000      -4.00000000      -4.00000000      -4.00000000      -4.00000000      -4.00000000      -4.00000000      -4.00000000      -4.00000000      -4.00000000      -4.00000000      -4.00000000      -4.00000000      -4.00000000      -4.00000000      -4.00000000      -4.00000000      -4.00000000      -4.00000000      -4.00000000
          -4.00000000      -4.00000000      -4.00000000      -4.00000000      -4.00000000      -4.00000000      -4.00000000      -4.00000000      -4.00000000      -4.00000000      -4.00000000      -4.00000000      -4.00000000      -4.00000000      -4.00000000      -4.00000000      -4.00000000      -4.00000000      -4.00000000      -4.00000000
          -4.00000000      -4.00000000      -4.00000000      -4.00000000      -4.00000000      -4.00000000      -4.00000000      -4.00000000      -4.00000000      -4.00000000      -4.00000000      -4.00000000      -4.00000000      -4.00000000      -4.00000000      -4.00000000      -4.00000000      -4.00000000      -4.00000000      -4.00000000
          -4.00000000      -4.00000000      -4.00000000      -4.00000000      -4.00000000      -4.00000000      -4.00000000      -4.00000000      -4.00000000      -4.00000000      -4.00000000      -4.00000000      -4.00000000       2.84000015      -1.61999989      -3.92999983      -3.92999983      -3.92999983      22.45000076      43.72000122
          44.49000168      41.31000137      38.52000046      47.40999985      46.81000137      51.99000168      39.36000061      42.68000031      40.06000137      37.13000107
          -4.00000000      -4.00000000      -4.00000000      -4.00000000      -4.00000000      -4.00000000      -4.00000000      -4.00000000      -4.00000000      -4.00000000      -4.00000000      -4.00000000      -4.00000000      -4.00000000      -4.00000000      -4.00000000      -4.00000000      -4.00000000      -4.00000000      -4.00000000
          -4.00000000      -4.00000000      -4.00000000      -4.00000000      -4.00000000      -4.00000000      -4.00000000      -4.00000000      -4.00000000      -4.00000000      -4.00000000      -4.00000000      -4.00000000      -4.00000000      -4.00000000      -4.00000000      -4.00000000      -4.00000000      -4.00000000      -4.00000000
          -4.00000000      -4.00000000      -4.00000000      -4.00000000      -4.00000000      -4.00000000      -4.00000000      -4.00000000      -4.00000000      -4.00000000      -4.00000000      -4.00000000      -4.00000000      -4.00000000      -4.00000000      -4.00000000      -4.00000000      -4.00000000      -4.00000000      -4.00000000
          -4.00000000      -4.00000000      -4.00000000      -4.00000000      -4.00000000      -4.00000000      -4.00000000      -4.00000000      -4.00000000      -4.00000000      -4.00000000      -4.00000000      -4.00000000      -4.00000000      -4.00000000      -4.00000000      -4.00000000      -4.00000000      -4.00000000      -4.00000000
          -4.00000000      -4.00000000      -4.00000000      -4.00000000      -4.00000000      -4.00000000      -4.00000000      -4.00000000      -4.00000000      -4.00000000      -4.00000000      -4.00000000      -4.00000000      -4.00000000      -4.00000000      -4.00000000      -4.00000000      -4.00000000      -4.00000000      -4.00000000
          -4.00000000      -4.00000000      -4.00000000      -4.00000000      -4.00000000      -4.00000000      -4.00000000      -4.00000000      -4.00000000      -4.00000000      -4.00000000      -4.00000000      -4.00000000      -4.00000000      -4.00000000      -4.00000000      -4.00000000      -4.00000000      -4.00000000      -4.00000000
          -4.00000000      -4.00000000      -4.00000000      -4.00000000      -4.00000000      -4.00000000      -4.00000000      -4.00000000      -4.00000000      -4.00000000      -4.00000000      -4.00000000      -4.00000000      -0.64000010      -3.92999983      -3.92999983      -3.92999983      -3.92999983       9.52999973      40.22000122
          44.11000061      40.15000153      35.13000107      43.00000000      49.11000061      44.79000092      28.74000168      37.86000061      37.93000031      10.85000038
          -4.00000000      -4.00000000      -4.00000000      -4.00000000      -4.00000000      -4.00000000      -4.00000000      -4.00000000      -4.00000000      -4.00000000      -4.00000000      -4.00000000      -4.00000000      -4.00000000      -4.00000000      -4.00000000      -4.00000000      -4.00000000      -4.00000000      -4.00000000
          -4.00000000      -4.00000000      -4.00000000      -4.00000000      -4.00000000      -4.00000000      -4.00000000      -4.00000000      -4.00000000      -4.00000000      -4.00000000      -4.00000000      -4.00000000      -4.00000000      -4.00000000      -4.00000000      -4.00000000      -4.00000000      -4.00000000      -4.00000000
          -4.00000000      -4.00000000      -4.00000000      -4.00000000      -4.00000000      -4.00000000      -4.00000000      -4.00000000      -4.00000000      -4.00000000      -4.00000000      -4.00000000      -4.00000000      -4.00000000      -4.00000000      -4.00000000      -4.00000000      -4.00000000      -4.00000000      -4.00000000
          -4.00000000      -4.00000000      -4.00000000      -4.00000000      -4.00000000      -4.00000000      -4.00000000      -4.00000000      -4.00000000      -4.00000000      -4.00000000      -4.00000000      -4.00000000      -4.00000000      -4.00000000      -4.00000000      -4.00000000      -4.00000000      -4.00000000      -4.00000000