BEGIN options
END options

BEGIN packages
  DIS6  3D_4_layers.dis  dis
  IC6  3D_4_layers.ic  ic
  OC6  3D_4_layers.oc  oc
  NPF6  3D_4_layers.npf  npf
  RCH6  3D_4_layers.rch  rch_0
  WEL6  3D_4_layers.wel  wel
  CHD6  sea.chd  sea
  CHD6  plio.chd  plio
  CHD6  eta.chd  eta
  RIV6  agly.riv  agly
  RIV6  Tet.riv  tet
  RIV6  Rea.riv  rea
  RIV6  Cant.riv  cant
  RIV6  Tech.riv  tech
  RIV6  Bol.riv  bol
END packages

