BEGIN options
END options

BEGIN griddata
  icelltype
    CONSTANT  0
  k  LAYERED
    INTERNAL  FACTOR  1.0
      7.17800517E-04  7.17800517E-04  7.17800517E-04  7.17800517E-04  7.17800517E-04  7.17800517E-04  7.17800517E-04  7.17800517E-04  7.17800517E-04  7.17800517E-04  7.17800517E-04  7.17800517E-04  7.17800517E-04  7.17800517E-04  7.17800517E-04  7.17800517E-04  7.17800517E-04  7.17800517E-04  7.17800517E-04  7.17800517E-04
      7.17800517E-04  7.17800517E-04  7.17800517E-04  7.17800517E-04  7.17800517E-04  7.17800517E-04  7.17800517E-04  7.17800517E-04  7.17800517E-04  7.17800517E-04  7.17800517E-04  7.17800517E-04  7.17800517E-04  7.17800517E-04  7.17800517E-04  7.17800517E-04  7.17800517E-04  7.17800517E-04  7.17800517E-04  7.17800517E-04
      7.17800517E-04  7.17800517E-04  7.17800517E-04  7.17800517E-04  7.17800517E-04  7.17800517E-04  7.17800517E-04  7.17800517E-04  7.17800517E-04  7.17800517E-04  7.17800517E-04  7.17800517E-04  7.17800517E-04  7.17800517E-04  7.17800517E-04  7.17800517E-04  7.17800517E-04  7.17800517E-04  7.17800517E-04  7.17800517E-04
      7.17800517E-04  7.17800517E-04  7.17800517E-04  7.17800517E-04  7.17800517E-04  7.17800517E-04  7.17800517E-04  7.17800517E-04  7.17800517E-04  7.17800517E-04  7.17800517E-04  7.17800517E-04  7.17800517E-04  7.17800517E-04  7.17800517E-04  7.17800517E-04  7.17800517E-04  7.17800517E-04  7.17800517E-04  7.17800517E-04
      7.17800517E-04  7.17800517E-04  7.17800517E-04  7.17800517E-04  7.17800517E-04  7.17800517E-04  7.17800517E-04  7.17800517E-04  7.17800517E-04  7.17800517E-04  7.17800517E-04  7.17800517E-04  7.17800517E-04  7.17800517E-04  7.17800517E-04  7.17800517E-04  7.17800517E-04  7.17800517E-04  7.17800517E-04  7.17800517E-04
      7.17800517E-04  7.17800517E-04  7.17800517E-04  7.17800517E-04  7.17800517E-04  7.17800517E-04  7.17800517E-04  7.17800517E-04  7.17800517E-04  7.17800517E-04  7.17800517E-04  7.17800517E-04  7.17800517E-04  7.17800517E-04  7.17800517E-04  7.17800517E-04  7.17800517E-04  7.17800517E-04  7.17800517E-04  7.17800517E-04
      7.17800517E-04  7.17800517E-04  7.17800517E-04  7.17800517E-04  7.17800517E-04  7.17800517E-04  7.17800517E-04  7.17800517E-04  7.17800517E-04  7.17800517E-04  7.17800517E-04  7.17800517E-04  7.17800517E-04  7.17800517E-04  7.17800517E-04  7.17800517E-04  7.17800517E-04  7.17800517E-04  7.17800517E-04  7.17800517E-04
      7.17800517E-04  7.17800517E-04  7.17800517E-04  7.17800517E-04  7.17800517E-04  7.17800517E-04  7.17800517E-04  7.17800517E-04  7.17800517E-04  7.17800517E-04
      7.17800517E-04  7.17800517E-04  7.17800517E-04  7.17800517E-04  7.17800517E-04  7.17800517E-04  7.17800517E-04  7.17800517E-04  7.17800517E-04  7.17800517E-04  7.17800517E-04  7.17800517E-04  7.17800517E-04  7.17800517E-04  7.17800517E-04  7.17800517E-04  7.17800517E-04  7.17800517E-04  7.17800517E-04  7.17800517E-04
      7.17800517E-04  7.17800517E-04  7.17800517E-04  7.17800517E-04  7.17800517E-04  7.17800517E-04  7.17800517E-04  7.17800517E-04  7.17800517E-04  7.17800517E-04  7.17800517E-04  7.17800517E-04  7.17800517E-04  7.17800517E-04  7.17800517E-04  7.17800517E-04  7.17800517E-04  7.17800517E-04  7.17800517E-04  7.17800517E-04
      7.17800517E-04  7.17800517E-04  7.17800517E-04  7.17800517E-04  7.17800517E-04  7.17800517E-04  7.17800517E-04  7.17800517E-04  7.17800517E-04  7.17800517E-04  7.17800517E-04  7.17800517E-04  7.17800517E-04  7.17800517E-04  7.17800517E-04  7.17800517E-04  7.17800517E-04  7.17800517E-04  7.17800517E-04  7.17800517E-04
      7.17800517E-04  7.17800517E-04  7.17800517E-04  7.17800517E-04  7.17800517E-04  7.17800517E-04  7.17800517E-04  7.17800517E-04  7.17800517E-04  7.17800517E-04  7.17800517E-04  7.17800517E-04  7.17800517E-04  7.17800517E-04  7.17800517E-04  7.17800517E-04  7.17800517E-04  7.17800517E-04  7.17800517E-04  7.17800517E-04
      7.17800517E-04  7.17800517E-04  7.17800517E-04  7.17800517E-04  7.17800517E-04  7.17800517E-04  7.17800517E-04  7.17800517E-04  7.17800517E-04  7.17800517E-04  7.17800517E-04  7.17800517E-04  7.17800517E-04  7.17800517E-04  7.17800517E-04  7.17800517E-04  7.17800517E-04  7.17800517E-04  7.17800517E-04  7.17800517E-04
      7.17800517E-04  7.17800517E-04  7.17800517E-04  7.17800517E-04  7.17800517E-04  7.17800517E-04  7.17800517E-04  7.17800517E-04  7.17800517E-04  7.17800517E-04  7.17800517E-04  7.17800517E-04  7.17800517E-04  7.17800517E-04  7.17800517E-04  7.17800517E-04  7.17800517E-04  7.17800517E-04  7.17800517E-04  7.17800517E-04
      7.17800517E-04  7.17800517E-04  7.17800517E-04  7.17800517E-04  7.17800517E-04  7.17800517E-04  7.17800517E-04  7.17800517E-04  7.17800517E-04  7.17800517E-04  7.17800517E-04  7.17800517E-04  7.17800517E-04  7.17800517E-04  7.17800517E-04  7.17800517E-04  7.17800517E-04  7.17800517E-04  7.17800517E-04  7.17800517E-04
      7.17800517E-04  7.17800517E-04  7.17800517E-04  7.17800517E-04  7.17800517E-04  7.17800517E-04  7.17800517E-04  7.17800517E-04  7.17800517E-04  7.17800517E-04
      7.17800517E-04  7.17800517E-04  7.17800517E-04  7.17800517E-04  7.17800517E-04  7.17800517E-04  7.17800517E-04  7.17800517E-04  7.17800517E-04  7.17800517E-04  7.17800517E-04  7.17800517E-04  7.17800517E-04  7.17800517E-04  7.17800517E-04  7.17800517E-04  7.17800517E-04  7.17800517E-04  7.17800517E-04  7.17800517E-04
      7.17800517E-04  7.17800517E-04  7.17800517E-04  7.17800517E-04  7.17800517E-04  7.17800517E-04  7.17800517E-04  7.17800517E-04  7.17800517E-04  7.17800517E-04  7.17800517E-04  7.17800517E-04  7.17800517E-04  7.17800517E-04  7.17800517E-04  7.17800517E-04  7.17800517E-04  7.17800517E-04  7.17800517E-04  7.17800517E-04
      7.17800517E-04  7.17800517E-04  7.17800517E-04  7.17800517E-04  7.17800517E-04  7.17800517E-04  7.17800517E-04  7.17800517E-04  7.17800517E-04  7.17800517E-04  7.17800517E-04  7.17800517E-04  7.17800517E-04  7.17800517E-04  7.17800517E-04  7.17800517E-04  7.17800517E-04  7.17800517E-04  7.17800517E-04  7.17800517E-04
      7.17800517E-04  7.17800517E-04  7.17800517E-04  7.17800517E-04  7.17800517E-04  7.17800517E-04  7.17800517E-04  7.17800517E-04  7.17800517E-04  7.17800517E-04  7.17800517E-04  7.17800517E-04  7.17800517E-04  7.17800517E-04  7.17800517E-04  7.17800517E-04  7.17800517E-04  7.17800517E-04  7.17800517E-04  7.17800517E-04
      7.17800517E-04  7.17800517E-04  7.17800517E-04  7.17800517E-04  7.17800517E-04  7.17800517E-04  7.17800517E-04  7.17800517E-04  7.17800517E-04  7.17800517E-04  7.17800517E-04  7.17800517E-04  7.17800517E-04  7.17800517E-04  7.17800517E-04  7.17800517E-04  7.17800517E-04  7.17800517E-04  7.17800517E-04  7.17800517E-04
      7.17800517E-04  7.17800517E-04  7.17800517E-04  7.17800517E-04  7.17800517E-04  7.17800517E-04  7.17800517E-04  7.17800517E-04  7.17800517E-04  7.17800517E-04  7.17800517E-04  7.17800517E-04  7.17800517E-04  7.17800517E-04  7.17800517E-04  7.17800517E-04  7.17800517E-04  7.17800517E-04  7.17800517E-04  7.17800517E-04
      7.17800517E-04  7.17800517E-04  7.17800517E-04  7.17800517E-04  7.17800517E-04  7.17800517E-04  7.17800517E-04  7.17800517E-04  7.17800517E-04  7.17800517E-04  7.17800517E-04  7.17800517E-04  7.17800517E-04  7.17800517E-04  7.17800517E-04  7.17800517E-04  7.17800517E-04  7.17800517E-04  7.17800517E-04  7.17800517E-04
      7.17800517E-04  7.17800517E-04  7.17800517E-04  7.17800517E-04  7.17800517E-04  7.17800517E-04  7.17800517E-04  7.17800517E-04  7.17800517E-04  7.17800517E-04
      7.17800517E-04  7.17800517E-04  7.17800517E-04  7.17800517E-04  7.17800517E-04  7.17800517E-04  7.17800517E-04  7.17800517E-04  7.17800517E-04  7.17800517E-04  7.17800517E-04  7.17800517E-04  7.17800517E-04  7.17800517E-04  7.17800517E-04  7.17800517E-04  7.17800517E-04  7.17800517E-04  7.17800517E-04  7.17800517E-04
      7.17800517E-04  7.17800517E-04  7.17800517E-04  7.17800517E-04  7.17800517E-04  7.17800517E-04  7.17800517E-04  7.17800517E-04  7.17800517E-04  7.17800517E-04  7.17800517E-04  7.17800517E-04  7.17800517E-04  7.17800517E-04  7.17800517E-04  7.17800517E-04  7.17800517E-04  7.17800517E-04  7.17800517E-04  7.17800517E-04
      7.17800517E-04  7.17800517E-04  7.17800517E-04  7.17800517E-04  7.17800517E-04  7.17800517E-04  7.17800517E-04  7.17800517E-04  7.17800517E-04  7.17800517E-04  7.17800517E-04  7.17800517E-04  7.17800517E-04  7.17800517E-04  7.17800517E-04  7.17800517E-04  7.17800517E-04  7.17800517E-04  7.17800517E-04  7.17800517E-04
      7.17800517E-04  7.17800517E-04  7.17800517E-04  7.17800517E-04  7.17800517E-04  7.17800517E-04  7.17800517E-04  7.17800517E-04  7.17800517E-04  7.17800517E-04  7.17800517E-04  7.17800517E-04  7.17800517E-04  7.17800517E-04  7.17800517E-04  7.17800517E-04  7.17800517E-04  7.17800517E-04  7.17800517E-04  7.17800517E-04
      7.17800517E-04  7.17800517E-04  7.17800517E-04  7.17800517E-04  7.17800517E-04  7.17800517E-04  7.17800517E-04  7.17800517E-04  7.17800517E-04  7.17800517E-04  7.17800517E-04  7.17800517E-04  7.17800517E-04  7.17800517E-04  7.17800517E-04  7.17800517E-04  7.17800517E-04  7.17800517E-04  7.17800517E-04  7.17800517E-04
      7.17800517E-04  7.17800517E-04  7.17800517E-04  7.17800517E-04  7.17800517E-04  7.17800517E-04  7.17800517E-04  7.17800517E-04  7.17800517E-04  7.17800517E-04  7.17800517E-04  7.17800517E-04  7.17800517E-04  7.17800517E-04  7.17800517E-04  7.17800517E-04  7.17800517E-04  7.17800517E-04  7.17800517E-04  7.17800517E-04
      7.17800517E-04  7.17800517E-04  7.17800517E-04  7.17800517E-04  7.17800517E-04  7.17800517E-04  7.17800517E-04  7.17800517E-04  7.17800517E-04  7.17800517E-04  7.17800517E-04  7.17800517E-04  7.17800517E-04  7.17800517E-04  7.17800517E-04  7.17800517E-04  7.17800517E-04  7.17800517E-04  7.17800517E-04  7.17800517E-04
      7.17800517E-04  7.17800517E-04  7.17800517E-04  7.17800517E-04  7.17800517E-04  7.17800517E-04  7.17800517E-04  7.17800517E-04  7.17800517E-04  7.17800517E-04
      7.17800517E-04  7.17800517E-04  7.17800517E-04  7.17800517E-04  7.17800517E-04  7.17800517E-04  7.17800517E-04  7.17800517E-04  7.17800517E-04  7.17800517E-04  7.17800517E-04  7.17800517E-04  7.17800517E-04  7.17800517E-04  7.17800517E-04  7.17800517E-04  7.17800517E-04  7.17800517E-04  7.17800517E-04  7.17800517E-04
      7.17800517E-04  7.17800517E-04  7.17800517E-04  7.17800517E-04  7.17800517E-04  7.17800517E-04  7.17800517E-04  7.17800517E-04  7.17800517E-04  7.17800517E-04  7.17800517E-04  7.17800517E-04  7.17800517E-04  7.17800517E-04  7.17800517E-04  7.17800517E-04  7.17800517E-04  7.17800517E-04  7.17800517E-04  7.17800517E-04
      7.17800517E-04  7.17800517E-04  7.17800517E-04  7.17800517E-04  7.17800517E-04  7.17800517E-04  7.17800517E-04  7.17800517E-04  7.17800517E-04  7.17800517E-04  7.17800517E-04  7.17800517E-04  7.17800517E-04  7.17800517E-04  7.17800517E-04  7.17800517E-04  7.17800517E-04  7.17800517E-04  7.17800517E-04  7.17800517E-04
      7.17800517E-04  7.17800517E-04  7.17800517E-04  7.17800517E-04  7.17800517E-04  7.17800517E-04  7.17800517E-04  7.17800517E-04  7.17800517E-04  7.17800517E-04  7.17800517E-04  7.17800517E-04  7.17800517E-04  7.17800517E-04  7.17800517E-04  7.17800517E-04  7.17800517E-04  7.17800517E-04  7.17800517E-04  7.17800517E-04
      7.17800517E-04  7.17800517E-04  7.17800517E-04  7.17800517E-04  7.17800517E-04  7.17800517E-04  7.17800517E-04  7.17800517E-04  7.17800517E-04  7.17800517E-04  7.17800517E-04  7.17800517E-04  7.17800517E-04  7.17800517E-04  7.17800517E-04  7.17800517E-04  7.17800517E-04  7.17800517E-04  7.17800517E-04  7.17800517E-04
      7.17800517E-04  7.17800517E-04  7.17800517E-04  7.17800517E-04  7.17800517E-04  7.17800517E-04  7.17800517E-04  7.17800517E-04  7.17800517E-04  7.17800517E-04  7.17800517E-04  7.17800517E-04  7.17800517E-04  7.17800517E-04  7.17800517E-04  7.17800517E-04  7.17800517E-04  7.17800517E-04  7.17800517E-04  7.17800517E-04
      7.17800517E-04  7.17800517E-04  7.17800517E-04  7.17800517E-04  7.17800517E-04  7.17800517E-04  7.17800517E-04  7.17800517E-04  7.17800517E-04  7.17800517E-04  7.17800517E-04  7.17800517E-04  7.17800517E-04  7.17800517E-04  7.17800517E-04  7.17800517E-04  7.17800517E-04  7.17800517E-04  7.17800517E-04  7.17800517E-04
      7.17800517E-04  7.17800517E-04  7.17800517E-04  7.17800517E-04  7.17800517E-04  7.17800517E-04  7.17800517E-04  7.17800517E-04  7.17800517E-04  7.17800517E-04
      7.17800517E-04  7.17800517E-04  7.17800517E-04  7.17800517E-04  7.17800517E-04  7.17800517E-04  7.17800517E-04  7.17800517E-04  7.17800517E-04  7.17800517E-04  7.17800517E-04  7.17800517E-04  7.17800517E-04  7.17800517E-04  7.17800517E-04  7.17800517E-04  7.17800517E-04  7.17800517E-04  7.17800517E-04  7.17800517E-04
      7.17800517E-04  7.17800517E-04  7.17800517E-04  7.17800517E-04  7.17800517E-04  7.17800517E-04  7.17800517E-04  7.17800517E-04  7.17800517E-04  7.17800517E-04  7.17800517E-04  7.17800517E-04  7.17800517E-04  7.17800517E-04  7.17800517E-04  7.17800517E-04  7.17800517E-04  7.17800517E-04  7.17800517E-04  7.17800517E-04
      7.17800517E-04  7.17800517E-04  7.17800517E-04  7.17800517E-04  7.17800517E-04  7.17800517E-04  7.17800517E-04  7.17800517E-04  7.17800517E-04  7.17800517E-04  7.17800517E-04  7.17800517E-04  7.17800517E-04  7.17800517E-04  7.17800517E-04  7.17800517E-04  7.17800517E-04  7.17800517E-04  7.17800517E-04  7.17800517E-04
      7.17800517E-04  7.17800517E-04  7.17800517E-04  7.17800517E-04  7.17800517E-04  7.17800517E-04  7.17800517E-04  7.17800517E-04  7.17800517E-04  7.17800517E-04  7.17800517E-04  7.17800517E-04  7.17800517E-04  7.17800517E-04  7.17800517E-04  7.17800517E-04  7.17800517E-04  7.17800517E-04  7.17800517E-04  7.17800517E-04
      7.17800517E-04  7.17800517E-04  7.17800517E-04  7.17800517E-04  7.17800517E-04  7.17800517E-04  7.17800517E-04  7.17800517E-04  7.17800517E-04  7.17800517E-04  7.17800517E-04  7.17800517E-04  7.17800517E-04  7.17800517E-04  7.17800517E-04  7.17800517E-04  7.17800517E-04  7.17800517E-04  7.17800517E-04  7.17800517E-04
      7.17800517E-04  7.17800517E-04  7.17800517E-04  7.17800517E-04  7.17800517E-04  7.17800517E-04  7.17800517E-04  7.17800517E-04  7.17800517E-04  7.17800517E-04  7.17800517E-04  7.17800517E-04  7.17800517E-04  7.17800517E-04  7.17800517E-04  7.17800517E-04  7.17800517E-04  7.17800517E-04  7.17800517E-04  7.17800517E-04
      7.17800517E-04  7.17800517E-04  7.17800517E-04  7.17800517E-04  7.17800517E-04  7.17800517E-04  7.17800517E-04  7.17800517E-04  7.17800517E-04  7.17800517E-04  7.17800517E-04  7.17800517E-04  7.17800517E-04  7.17800517E-04  7.17800517E-04  7.17800517E-04  7.17800517E-04  7.17800517E-04  7.17800517E-04  7.17800517E-04
      7.17800517E-04  7.17800517E-04  7.17800517E-04  7.17800517E-04  7.17800517E-04  7.17800517E-04  7.17800517E-04  7.17800517E-04  7.17800517E-04  7.17800517E-04
      7.17800517E-04  7.17800517E-04  7.17800517E-04  7.17800517E-04  7.17800517E-04  7.17800517E-04  7.17800517E-04  7.17800517E-04  7.17800517E-04  7.17800517E-04  7.17800517E-04  7.17800517E-04  7.17800517E-04  7.17800517E-04  7.17800517E-04  7.17800517E-04  7.17800517E-04  7.17800517E-04  7.17800517E-04  7.17800517E-04
      7.17800517E-04  7.17800517E-04  7.17800517E-04  7.17800517E-04  7.17800517E-04  7.17800517E-04  7.17800517E-04  7.17800517E-04  7.17800517E-04  7.17800517E-04  7.17800517E-04  7.17800517E-04  7.17800517E-04  7.17800517E-04  7.17800517E-04  7.17800517E-04  7.17800517E-04  7.17800517E-04  7.17800517E-04  7.17800517E-04
      7.17800517E-04  7.17800517E-04  7.17800517E-04  7.17800517E-04  7.17800517E-04  7.17800517E-04  7.17800517E-04  7.17800517E-04  7.17800517E-04  7.17800517E-04  7.17800517E-04  7.17800517E-04  7.17800517E-04  7.17800517E-04  7.17800517E-04  7.17800517E-04  7.17800517E-04  7.17800517E-04  7.17800517E-04  7.17800517E-04
      7.17800517E-04  7.17800517E-04  7.17800517E-04  7.17800517E-04  7.17800517E-04  7.17800517E-04  7.17800517E-04  7.17800517E-04  7.17800517E-04  7.17800517E-04  7.17800517E-04  7.17800517E-04  7.17800517E-04  7.17800517E-04  7.17800517E-04  7.17800517E-04  7.17800517E-04  7.17800517E-04  7.17800517E-04  7.17800517E-04
      7.17800517E-04  7.17800517E-04  7.17800517E-04  7.17800517E-04  7.17800517E-04  7.17800517E-04  7.17800517E-04  7.17800517E-04  7.17800517E-04  7.17800517E-04  7.17800517E-04  7.17800517E-04  7.17800517E-04  7.17800517E-04  7.17800517E-04  7.17800517E-04  7.17800517E-04  7.17800517E-04  7.17800517E-04  7.17800517E-04
      7.17800517E-04  7.17800517E-04  7.17800517E-04  7.17800517E-04  7.17800517E-04  7.17800517E-04  7.17800517E-04  7.17800517E-04  7.17800517E-04  7.17800517E-04  7.17800517E-04  7.17800517E-04  7.17800517E-04  7.17800517E-04  7.17800517E-04  7.17800517E-04  7.17800517E-04  7.17800517E-04  7.17800517E-04  7.17800517E-04
      7.17800517E-04  7.17800517E-04  7.17800517E-04  7.17800517E-04  7.17800517E-04  7.17800517E-04  7.17800517E-04  7.17800517E-04  7.17800517E-04  7.17800517E-04  7.17800517E-04  7.17800517E-04  7.17800517E-04  7.17800517E-04  7.17800517E-04  7.17800517E-04  7.17800517E-04  7.17800517E-04  7.17800517E-04  7.17800517E-04
      7.17800517E-04  7.17800517E-04  7.17800517E-04  7.17800517E-04  7.17800517E-04  7.17800517E-04  7.17800517E-04  7.17800517E-04  7.17800517E-04  7.17800517E-04
      7.17800517E-04  7.17800517E-04  7.17800517E-04  7.17800517E-04  7.17800517E-04  7.17800517E-04  7.17800517E-04  7.17800517E-04  7.17800517E-04  7.17800517E-04  7.17800517E-04  7.17800517E-04  7.17800517E-04  7.17800517E-04  7.17800517E-04  7.17800517E-04  7.17800517E-04  7.17800517E-04  7.17800517E-04  7.17800517E-04
      7.17800517E-04  7.17800517E-04  7.17800517E-04  7.17800517E-04  7.17800517E-04  7.17800517E-04  7.17800517E-04  7.17800517E-04  7.17800517E-04  7.17800517E-04  7.17800517E-04  7.17800517E-04  7.17800517E-04  7.17800517E-04  7.17800517E-04  7.17800517E-04  7.17800517E-04  7.17800517E-04  7.17800517E-04  7.17800517E-04
      7.17800517E-04  7.17800517E-04  7.17800517E-04  7.17800517E-04  7.17800517E-04  7.17800517E-04  7.17800517E-04  7.17800517E-04  7.17800517E-04  7.17800517E-04  7.17800517E-04  7.17800517E-04  7.17800517E-04  7.17800517E-04  7.17800517E-04  7.17800517E-04  7.17800517E-04  7.17800517E-04  7.17800517E-04  7.17800517E-04
      7.17800517E-04  7.17800517E-04  7.17800517E-04  7.17800517E-04  7.17800517E-04  7.17800517E-04  7.17800517E-04  7.17800517E-04  7.17800517E-04  7.17800517E-04  7.17800517E-04  7.17800517E-04  7.17800517E-04  7.17800517E-04  7.17800517E-04  7.17800517E-04  7.17800517E-04  7.17800517E-04  7.17800517E-04  7.17800517E-04
      7.17800517E-04  7.17800517E-04  7.17800517E-04  7.17800517E-04  7.17800517E-04  7.17800517E-04  7.17800517E-04  7.17800517E-04  7.17800517E-04  7.17800517E-04  7.17800517E-04  7.17800517E-04  7.17800517E-04  7.17800517E-04  7.17800517E-04  7.17800517E-04  7.17800517E-04  7.17800517E-04  7.17800517E-04  7.17800517E-04
      7.17800517E-04  7.17800517E-04  7.17800517E-04  7.17800517E-04  7.17800517E-04  7.17800517E-04  7.17800517E-04  7.17800517E-04  7.17800517E-04  7.17800517E-04  7.17800517E-04  7.17800517E-04  7.17800517E-04  7.17800517E-04  7.17800517E-04  7.17800517E-04  7.17800517E-04  7.17800517E-04  7.17800517E-04  7.17800517E-04
      7.17800517E-04  7.17800517E-04  7.17800517E-04  7.17800517E-04  7.17800517E-04  7.17800517E-04  7.17800517E-04  7.17800517E-04  7.17800517E-04  7.17800517E-04  7.17800517E-04  7.17800517E-04  7.17800517E-04  7.17800517E-04  7.17800517E-04  7.17800517E-04  7.17800517E-04  7.17800517E-04  7.17800517E-04  7.17800517E-04
      7.17800517E-04  7.17800517E-04  7.17800517E-04  7.17800517E-04  7.17800517E-04  7.17800517E-04  7.17800517E-04  7.17800517E-04  7.17800517E-04  7.17800517E-04
      7.17800517E-04  7.17800517E-04  7.17800517E-04  7.17800517E-04  7.17800517E-04  7.17800517E-04  7.17800517E-04  7.17800517E-04  7.17800517E-04  7.17800517E-04  7.17800517E-04  7.17800517E-04  7.17800517E-04  7.17800517E-04  7.17800517E-04  7.17800517E-04  7.17800517E-04  7.17800517E-04  7.17800517E-04  7.17800517E-04
      7.17800517E-04  7.17800517E-04  7.17800517E-04  7.17800517E-04  7.17800517E-04  7.17800517E-04  7.17800517E-04  7.17800517E-04  7.17800517E-04  7.17800517E-04  7.17800517E-04  7.17800517E-04  7.17800517E-04  7.17800517E-04  7.17800517E-04  7.17800517E-04  7.17800517E-04  7.17800517E-04  7.17800517E-04  7.17800517E-04
      7.17800517E-04  7.17800517E-04  7.17800517E-04  7.17800517E-04  7.17800517E-04  7.17800517E-04  7.17800517E-04  7.17800517E-04  7.17800517E-04  7.17800517E-04  7.17800517E-04  7.17800517E-04  7.17800517E-04  7.17800517E-04  7.17800517E-04  7.17800517E-04  7.17800517E-04  7.17800517E-04  7.17800517E-04  7.17800517E-04
      7.17800517E-04  7.17800517E-04  7.17800517E-04  7.17800517E-04  7.17800517E-04  7.17800517E-04  7.17800517E-04  7.17800517E-04  7.17800517E-04  7.17800517E-04  7.17800517E-04  7.17800517E-04  7.17800517E-04  7.17800517E-04  7.17800517E-04  7.17800517E-04  7.17800517E-04  7.17800517E-04  7.17800517E-04  7.17800517E-04
      7.17800517E-04  7.17800517E-04  7.17800517E-04  7.17800517E-04  7.17800517E-04  7.17800517E-04  7.17800517E-04  7.17800517E-04  7.17800517E-04  7.17800517E-04  7.17800517E-04  7.17800517E-04  7.17800517E-04  7.17800517E-04  7.17800517E-04  7.17800517E-04  7.17800517E-04  7.17800517E-04  7.17800517E-04  7.17800517E-04
      7.17800517E-04  7.17800517E-04  7.17800517E-04  7.17800517E-04  7.17800517E-04  7.17800517E-04  7.17800517E-04  7.17800517E-04  7.17800517E-04  7.17800517E-04  7.17800517E-04  7.17800517E-04  7.17800517E-04  7.17800517E-04  7.17800517E-04  7.17800517E-04  7.17800517E-04  7.17800517E-04  7.17800517E-04  7.17800517E-04
      7.17800517E-04  7.17800517E-04  7.17800517E-04  7.17800517E-04  7.17800517E-04  7.17800517E-04  7.17800517E-04  7.17800517E-04  7.17800517E-04  7.17800517E-04  7.17800517E-04  7.17800517E-04  7.17800517E-04  7.17800517E-04  7.17800517E-04  7.17800517E-04  7.17800517E-04  7.17800517E-04  7.17800517E-04  7.17800517E-04
      7.17800517E-04  7.17800517E-04  7.17800517E-04  7.17800517E-04  7.17800517E-04  7.17800517E-04  7.17800517E-04  7.17800517E-04  7.17800517E-04  7.17800517E-04
      7.17800517E-04  7.17800517E-04  7.17800517E-04  7.17800517E-04  7.17800517E-04  7.17800517E-04  7.17800517E-04  7.17800517E-04  7.17800517E-04  7.17800517E-04  7.17800517E-04  7.17800517E-04  7.17800517E-04  7.17800517E-04  7.17800517E-04  7.17800517E-04  7.17800517E-04  7.17800517E-04  7.17800517E-04  7.17800517E-04
      7.17800517E-04  7.17800517E-04  7.17800517E-04  7.17800517E-04  7.17800517E-04  7.17800517E-04  7.17800517E-04  7.17800517E-04  7.17800517E-04  7.17800517E-04  7.17800517E-04  7.17800517E-04  7.17800517E-04  7.17800517E-04  7.17800517E-04  7.17800517E-04  7.17800517E-04  7.17800517E-04  7.17800517E-04  7.17800517E-04
      7.17800517E-04  7.17800517E-04  7.17800517E-04  7.17800517E-04  7.17800517E-04  7.17800517E-04  7.17800517E-04  7.17800517E-04  7.17800517E-04  7.17800517E-04  7.17800517E-04  7.17800517E-04  7.17800517E-04  7.17800517E-04  7.17800517E-04  7.17800517E-04  7.17800517E-04  7.17800517E-04  7.17800517E-04  7.17800517E-04
      7.17800517E-04  7.17800517E-04  7.17800517E-04  7.17800517E-04  7.17800517E-04  7.17800517E-04  7.17800517E-04  7.17800517E-04  7.17800517E-04  7.17800517E-04  7.17800517E-04  7.17800517E-04  7.17800517E-04  7.17800517E-04  7.17800517E-04  7.17800517E-04  7.17800517E-04  7.17800517E-04  7.17800517E-04  7.17800517E-04
      7.17800517E-04  7.17800517E-04  7.17800517E-04  7.17800517E-04  7.17800517E-04  7.17800517E-04  7.17800517E-04  7.17800517E-04  7.17800517E-04  7.17800517E-04  7.17800517E-04  7.17800517E-04  7.17800517E-04  7.17800517E-04  7.17800517E-04  7.17800517E-04  7.17800517E-04  7.17800517E-04  7.17800517E-04  7.17800517E-04
      7.17800517E-04  7.17800517E-04  7.17800517E-04  7.17800517E-04  7.17800517E-04  7.17800517E-04  7.17800517E-04  7.17800517E-04  7.17800517E-04  7.17800517E-04  7.17800517E-04  7.17800517E-04  7.17800517E-04  7.17800517E-04  7.17800517E-04  7.17800517E-04  7.17800517E-04  7.17800517E-04  7.17800517E-04  7.17800517E-04
      7.17800517E-04  7.17800517E-04  7.17800517E-04  7.17800517E-04  7.17800517E-04  7.17800517E-04  7.17800517E-04  7.17800517E-04  7.17800517E-04  7.17800517E-04  7.17800517E-04  7.17800517E-04  7.17800517E-04  7.17800517E-04  7.17800517E-04  7.17800517E-04  7.17800517E-04  7.17800517E-04  7.17800517E-04  7.17800517E-04
      7.17800517E-04  7.17800517E-04  7.17800517E-04  7.17800517E-04  7.17800517E-04  7.17800517E-04  7.17800517E-04  7.17800517E-04  7.17800517E-04  7.17800517E-04
      7.17800517E-04  7.17800517E-04  7.17800517E-04  7.17800517E-04  7.17800517E-04  7.17800517E-04  7.17800517E-04  7.17800517E-04  7.17800517E-04  7.17800517E-04  7.17800517E-04  7.17800517E-04  7.17800517E-04  7.17800517E-04  7.17800517E-04  7.17800517E-04  7.17800517E-04  7.17800517E-04  7.17800517E-04  7.17800517E-04
      7.17800517E-04  7.17800517E-04  7.17800517E-04  7.17800517E-04  7.17800517E-04  7.17800517E-04  7.17800517E-04  7.17800517E-04  7.17800517E-04  7.17800517E-04  7.17800517E-04  7.17800517E-04  7.17800517E-04  7.17800517E-04  7.17800517E-04  7.17800517E-04  7.17800517E-04  7.17800517E-04  7.17800517E-04  7.17800517E-04
      7.17800517E-04  7.17800517E-04  7.17800517E-04  7.17800517E-04  7.17800517E-04  7.17800517E-04  7.17800517E-04  7.17800517E-04  7.17800517E-04  7.17800517E-04  7.17800517E-04  7.17800517E-04  7.17800517E-04  7.17800517E-04  7.17800517E-04  7.17800517E-04  7.17800517E-04  7.17800517E-04  7.17800517E-04  7.17800517E-04
      7.17800517E-04  7.17800517E-04  7.17800517E-04  7.17800517E-04  7.17800517E-04  7.17800517E-04  7.17800517E-04  7.17800517E-04  7.17800517E-04  7.17800517E-04  7.17800517E-04  7.17800517E-04  7.17800517E-04  7.17800517E-04  7.17800517E-04  7.17800517E-04  7.17800517E-04  7.17800517E-04  7.17800517E-04  7.17800517E-04
      7.17800517E-04  7.17800517E-04  7.17800517E-04  7.17800517E-04  7.17800517E-04  7.17800517E-04  7.17800517E-04  7.17800517E-04  7.17800517E-04  7.17800517E-04  7.17800517E-04  7.17800517E-04  7.17800517E-04  7.17800517E-04  7.17800517E-04  7.17800517E-04  7.17800517E-04  7.17800517E-04  7.17800517E-04  7.17800517E-04
      7.17800517E-04  7.17800517E-04  7.17800517E-04  7.17800517E-04  7.17800517E-04  7.17800517E-04  7.17800517E-04  7.17800517E-04  7.17800517E-04  7.17800517E-04  7.17800517E-04  7.17800517E-04  7.17800517E-04  7.17800517E-04  7.17800517E-04  7.17800517E-04  7.17800517E-04  7.17800517E-04  7.17800517E-04  7.17800517E-04
      7.17800517E-04  7.17800517E-04  7.17800517E-04  7.17800517E-04  7.17800517E-04  7.17800517E-04  7.17800517E-04  7.17800517E-04  7.17800517E-04  7.17800517E-04  7.17800517E-04  7.17800517E-04  7.17800517E-04  7.17800517E-04  7.17800517E-04  7.17800517E-04  7.17800517E-04  7.17800517E-04  7.17800517E-04  7.17800517E-04
      7.17800517E-04  7.17800517E-04  7.17800517E-04  7.17800517E-04  7.17800517E-04  7.17800517E-04  7.17800517E-04  7.17800517E-04  7.17800517E-04  7.17800517E-04
      7.17800517E-04  7.17800517E-04  7.17800517E-04  7.17800517E-04  7.17800517E-04  7.17800517E-04  7.17800517E-04  7.17800517E-04  7.17800517E-04  7.17800517E-04  7.17800517E-04  7.17800517E-04  7.17800517E-04  7.17800517E-04  7.17800517E-04  7.17800517E-04  7.17800517E-04  7.17800517E-04  7.17800517E-04  7.17800517E-04
      7.17800517E-04  7.17800517E-04  7.17800517E-04  7.17800517E-04  7.17800517E-04  7.17800517E-04  7.17800517E-04  7.17800517E-04  7.17800517E-04  7.17800517E-04  7.17800517E-04  7.17800517E-04  7.17800517E-04  7.17800517E-04  7.17800517E-04  7.17800517E-04  7.17800517E-04  7.17800517E-04  7.17800517E-04  7.17800517E-04
      7.17800517E-04  7.17800517E-04  7.17800517E-04  7.17800517E-04  7.17800517E-04  7.17800517E-04  7.17800517E-04  7.17800517E-04  7.17800517E-04  7.17800517E-04  7.17800517E-04  7.17800517E-04  7.17800517E-04  7.17800517E-04  7.17800517E-04  7.17800517E-04  7.17800517E-04  7.17800517E-04  7.17800517E-04  7.17800517E-04
      7.17800517E-04  7.17800517E-04  7.17800517E-04  7.17800517E-04  7.17800517E-04  7.17800517E-04  7.17800517E-04  7.17800517E-04  7.17800517E-04  7.17800517E-04  7.17800517E-04  7.17800517E-04  7.17800517E-04  7.17800517E-04  7.17800517E-04  7.17800517E-04  7.17800517E-04  7.17800517E-04  7.17800517E-04  7.17800517E-04
      7.17800517E-04  7.17800517E-04  7.17800517E-04  7.17800517E-04  7.17800517E-04  7.17800517E-04  7.17800517E-04  7.17800517E-04  7.17800517E-04  7.17800517E-04  7.17800517E-04  7.17800517E-04  7.17800517E-04  7.17800517E-04  7.17800517E-04  7.17800517E-04  7.17800517E-04  7.17800517E-04  7.17800517E-04  7.17800517E-04
      7.17800517E-04  7.17800517E-04  7.17800517E-04  7.17800517E-04  7.17800517E-04  7.17800517E-04  7.17800517E-04  7.17800517E-04  7.17800517E-04  7.17800517E-04  7.17800517E-04  7.17800517E-04  7.17800517E-04  7.17800517E-04  7.17800517E-04  7.17800517E-04  7.17800517E-04  7.17800517E-04  7.17800517E-04  7.17800517E-04
      7.17800517E-04  7.17800517E-04  7.17800517E-04  7.17800517E-04  7.17800517E-04  7.17800517E-04  7.17800517E-04  7.17800517E-04  7.17800517E-04  7.17800517E-04  7.17800517E-04  7.17800517E-04  7.17800517E-04  7.17800517E-04  7.17800517E-04  7.17800517E-04  7.17800517E-04  7.17800517E-04  7.17800517E-04  7.17800517E-04
      7.17800517E-04  7.17800517E-04  7.17800517E-04  7.17800517E-04  7.17800517E-04  7.17800517E-04  7.17800517E-04  7.17800517E-04  7.17800517E-04  7.17800517E-04
      7.17800517E-04  7.17800517E-04  7.17800517E-04  7.17800517E-04  7.17800517E-04  7.17800517E-04  7.17800517E-04  7.17800517E-04  7.17800517E-04  7.17800517E-04  7.17800517E-04  7.17800517E-04  7.17800517E-04  7.17800517E-04  7.17800517E-04  7.17800517E-04  7.17800517E-04  7.17800517E-04  7.17800517E-04  7.17800517E-04