BEGIN griddata
  strt  LAYERED
    INTERNAL  FACTOR  1.0
        9995.00000000    9995.00000000    9995.00000000    9995.00000000    9995.00000000    9995.00000000    9995.00000000    9995.00000000    9995.00000000    9995.00000000    9995.00000000    9995.00000000    9995.00000000    9995.00000000    9995.00000000    9995.00000000    9995.00000000    9995.00000000    9995.00000000    9995.00000000
        9995.00000000    9995.00000000    9995.00000000    9995.00000000    9995.00000000    9995.00000000    9995.00000000    9995.00000000    9995.00000000    9995.00000000    9995.00000000    9995.00000000    9995.00000000    9995.00000000    9995.00000000    9995.00000000    9995.00000000    9995.00000000    9995.00000000    9995.00000000
        9995.00000000    9995.00000000    9995.00000000    9995.00000000    9995.00000000    9995.00000000    9995.00000000    9995.00000000    9995.00000000    9995.00000000    9995.00000000    9995.00000000    9995.00000000    9995.00000000    9995.00000000    9995.00000000    9995.00000000    9995.00000000    9995.00000000    9995.00000000
        9995.00000000    9995.00000000    9995.00000000    9995.00000000    9995.00000000    9995.00000000    9995.00000000    9995.00000000    9995.00000000    9995.00000000    9995.00000000    9995.00000000    9995.00000000    9995.00000000    9995.00000000    9995.00000000    9995.00000000    9995.00000000    9995.00000000    9995.00000000
        9995.00000000    9995.00000000    9995.00000000    9995.00000000    9995.00000000    9995.00000000    9995.00000000    9995.00000000    9995.00000000    9995.00000000    9995.00000000    9995.00000000    9995.00000000    9995.00000000    9995.00000000    9995.00000000    9995.00000000    9995.00000000    9995.00000000    9995.00000000
        9995.00000000    9995.00000000    9995.00000000    9995.00000000    9995.00000000    9995.00000000    9995.00000000    9995.00000000    9995.00000000    9995.00000000    9995.00000000    9995.00000000    9995.00000000    9995.00000000    9995.00000000    9995.00000000    9995.00000000    9995.00000000    9995.00000000    9995.00000000
        9995.00000000    9995.00000000    9995.00000000    9995.00000000    9995.00000000    9995.00000000    9995.00000000    9995.00000000    9995.00000000    9995.00000000    9995.00000000    9995.00000000    9995.00000000    9995.00000000    9995.00000000    9995.00000000    9995.00000000    9995.00000000    9995.00000000    9995.00000000
        9995.00000000    9995.00000000    9995.00000000    9995.00000000    9995.00000000    9995.00000000    9995.00000000    9995.00000000    9995.00000000    9995.00000000    9995.00000000    9995.00000000    9995.00000000    9995.00000000    9995.00000000    9995.00000000    9995.00000000    9995.00000000    9995.00000000    9995.00000000
        9995.00000000    9995.00000000    9995.00000000    9995.00000000    9995.00000000    9995.00000000    9995.00000000    9995.00000000    9995.00000000    9995.00000000    9995.00000000    9995.00000000    9995.00000000    9995.00000000    9995.00000000    9995.00000000    9995.00000000    9995.00000000    9995.00000000    9995.00000000
        9995.00000000    9995.00000000    9995.00000000    9995.00000000    9995.00000000    9995.00000000    9995.00000000    9995.00000000    9995.00000000    9995.00000000    9995.00000000    9995.00000000    9995.00000000    9995.00000000    9995.00000000    9995.00000000    9995.00000000    9995.00000000    9995.00000000    9995.00000000
        9995.00000000    9995.00000000    9995.00000000    9995.00000000    9995.00000000    9995.00000000    9995.00000000    9995.00000000    9995.00000000    9995.00000000    9995.00000000    9995.00000000    9995.00000000    9995.00000000    9995.00000000    9995.00000000    9995.00000000    9995.00000000    9995.00000000    9995.00000000
        9995.00000000    9995.00000000    9995.00000000    9995.00000000    9995.00000000    9995.00000000    9995.00000000    9995.00000000    9995.00000000    9995.00000000    9995.00000000    9995.00000000    9995.00000000    9995.00000000
        9995.00000000    9995.00000000    9995.00000000    9995.00000000    9995.00000000    9995.00000000    9995.00000000    9995.00000000    9995.00000000    9995.00000000    9995.00000000    9995.00000000    9995.00000000    9995.00000000    9995.00000000    9995.00000000    9995.00000000    9995.00000000    9995.00000000    9995.00000000
        9995.00000000    9995.00000000    9995.00000000    9995.00000000    9995.00000000    9995.00000000    9995.00000000    9995.00000000    9995.00000000    9995.00000000    9995.00000000    9995.00000000    9995.00000000    9995.00000000    9995.00000000    9995.00000000    9995.00000000    9995.00000000    9995.00000000    9995.00000000
        9995.00000000    9995.00000000    9995.00000000    9995.00000000    9995.00000000    9995.00000000    9995.00000000    9995.00000000    9995.00000000    9995.00000000    9995.00000000    9995.00000000    9995.00000000    9995.00000000    9995.00000000    9995.00000000    9995.00000000    9995.00000000    9995.00000000    9995.00000000
        9995.00000000    9995.00000000    9995.00000000    9995.00000000    9995.00000000    9995.00000000    9995.00000000    9995.00000000    9995.00000000    9995.00000000    9995.00000000    9995.00000000    9995.00000000    9995.00000000    9995.00000000    9995.00000000    9995.00000000    9995.00000000    9995.00000000    9995.00000000
        9995.00000000    9995.00000000    9995.00000000    9995.00000000    9995.00000000    9995.00000000    9995.00000000    9995.00000000    9995.00000000    9995.00000000    9995.00000000    9995.00000000    9995.00000000    9995.00000000    9995.00000000    9995.00000000    9995.00000000    9995.00000000    9995.00000000    9995.00000000
        9995.00000000    9995.00000000    9995.00000000    9995.00000000    9995.00000000    9995.00000000    9995.00000000    9995.00000000    9995.00000000    9995.00000000    9995.00000000    9995.00000000    9995.00000000    9995.00000000    9995.00000000    9995.00000000    9995.00000000    9995.00000000    9995.00000000    9995.00000000
        9995.00000000    9995.00000000    9995.00000000    9995.00000000    9995.00000000    9995.00000000    9995.00000000    9995.00000000    9995.00000000    9995.00000000    9995.00000000    9995.00000000    9995.00000000    9995.00000000    9995.00000000    9995.00000000    9995.00000000    9995.00000000    9995.00000000    9995.00000000
        9995.00000000    9995.00000000     -35.90000153     -46.31074905     -46.29685974     -46.28580093     -46.03973007     -45.24074173     -44.30754089     -43.47362900     -42.36005020     -41.22195053     -40.08676910     -39.12142944     -38.26277161     -37.40679169     -38.70000076     -39.09999847     -39.50000000     -40.00000000
         -40.29999924     -40.90000153     -41.40000153     -41.79999924     -42.29999924     -42.70000076     -43.40000153     -43.58578110     -44.48870850     -45.75564957     -47.21770096     -48.70571899     -50.19324875     -51.79016113     -53.47031021     -55.14995956     -56.86764908     -58.71368027     -60.55987167     -62.41009903
         -64.37799835     -66.36665344     -68.35497284     -70.40659332     -72.51162720     -74.61643219     -76.74012756     -78.93134308     -80.84391785     -83.03851318     -85.27983856     -87.52961731     -89.77931976     -92.04129028     -94.31468201     -96.58802795     -98.85983276    -101.12519836    -103.39050293    -105.65509796
        -107.88950348    -110.11699677    -112.34439850    -114.54039764    -116.70410156    -118.86779785    -121.01609802    -122.82409668    -124.90319824    -126.98179626    -128.98049927    -130.95979309    -132.93910217    -134.86740112    -136.73840332    -138.60929871    -140.46310425    -142.22619629    -143.98649597    -145.74569702
        -147.42289734    -149.07640076    -150.72959900    -152.33929443    -154.15390015    -155.70899963    -157.24040222    -158.46170044    -159.93290710    -161.40119934    -162.80830383    -164.20759583    -165.60670471    9995.00000000
        9995.00000000    9995.00000000    9995.00000000    9995.00000000    9995.00000000    9995.00000000    9995.00000000    9995.00000000    9995.00000000    9995.00000000    9995.00000000    9995.00000000    9995.00000000    9995.00000000    9995.00000000    9995.00000000    9995.00000000    9995.00000000    9995.00000000    9995.00000000
        9995.00000000    9995.00000000    9995.00000000    9995.00000000    9995.00000000    9995.00000000    9995.00000000    9995.00000000    9995.00000000    9995.00000000    9995.00000000    9995.00000000    9995.00000000    9995.00000000    9995.00000000    9995.00000000    9995.00000000    9995.00000000    9995.00000000    9995.00000000
        9995.00000000    9995.00000000    9995.00000000    9995.00000000    9995.00000000    9995.00000000    9995.00000000    9995.00000000    9995.00000000    9995.00000000    9995.00000000    9995.00000000    9995.00000000    9995.00000000    9995.00000000    9995.00000000    9995.00000000    9995.00000000    9995.00000000    9995.00000000
        9995.00000000    9995.00000000    9995.00000000    9995.00000000    9995.00000000    9995.00000000    9995.00000000    9995.00000000    9995.00000000    9995.00000000    9995.00000000    9995.00000000    9995.00000000    9995.00000000    9995.00000000    9995.00000000    9995.00000000    9995.00000000    9995.00000000    9995.00000000
        9995.00000000    9995.00000000    9995.00000000    9995.00000000    9995.00000000    9995.00000000    9995.00000000    9995.00000000    9995.00000000    9995.00000000    9995.00000000    9995.00000000    9995.00000000    9995.00000000    9995.00000000    9995.00000000    9995.00000000    9995.00000000    9995.00000000    9995.00000000
        9995.00000000    9995.00000000    9995.00000000    9995.00000000    9995.00000000    9995.00000000    9995.00000000    9995.00000000    9995.00000000    9995.00000000    9995.00000000    9995.00000000    9995.00000000    9995.00000000    9995.00000000    9995.00000000    9995.00000000    9995.00000000    9995.00000000    9995.00000000
        9995.00000000    9995.00000000    9995.00000000    9995.00000000    9995.00000000    9995.00000000    9995.00000000    9995.00000000    9995.00000000    9995.00000000    9995.00000000    9995.00000000    9995.00000000    9995.00000000    9995.00000000    9995.00000000    9995.00000000    9995.00000000    9995.00000000     -31.29999924
         -33.70000076     -35.40000153     -45.13785934     -46.32009125     -46.47206879     -46.62686920     -46.49853897     -45.90243149     -45.25709915     -44.40721893     -43.49895096     -42.53179932     -41.57604980     -40.76298904     -40.06121063     -39.36252975     -38.91656113     -38.91624832     -38.96844864     -40.20000076
         -39.57260132     -40.16450882     -40.76733017     -41.56423187     -42.52214813     -43.48131180     -44.52798080     -45.73794174     -46.61495972     -47.87952042     -49.28718948     -50.74589920     -52.20851898     -53.77159119     -55.42224884     -57.07347870     -58.77624130     -60.58330154     -62.40468979     -64.24395752
         -66.17639923     -68.14528656     -70.11627960     -72.14875031     -74.23828125     -76.32872772     -78.44599152     -80.62016296     -82.52337646     -84.71456909     -86.94370270     -89.18830109     -91.43319702     -93.69122314     -95.96212006     -98.23327637    -100.50270081    -102.76820374    -105.03299713    -107.29399872
        -109.53189850    -111.75939941    -113.98619843    -116.18229675    -118.34660339    -120.50980377    -122.65059662    -124.73760223    -126.54149628    -128.60929871    -130.61410522    -132.58959961    -134.56410217    -136.48710632    -138.35389709    -140.21859741    -142.35450745    -144.11349487    -145.86529541    -147.60029602
        -149.26620483    -150.90939331    -152.54890442    -154.13529968    -155.67930603    -157.22300720    -158.73759460    -159.95280457    -161.41200256    -162.86109924    -164.26440430    -165.65199280    -167.03930664    9995.00000000
        9995.00000000    9995.00000000    9995.00000000    9995.00000000    9995.00000000    9995.00000000    9995.00000000    9995.00000000    9995.00000000    9995.00000000    9995.00000000    9995.00000000    9995.00000000    9995.00000000    9995.00000000    9995.00000000    9995.00000000    9995.00000000    9995.00000000    9995.00000000
        9995.00000000    9995.00000000    9995.00000000    9995.00000000    9995.00000000    9995.00000000    9995.00000000    9995.00000000    9995.00000000    9995.00000000    9995.00000000    9995.00000000    9995.00000000    9995.00000000    9995.00000000    9995.00000000    9995.00000000    9995.00000000    9995.00000000    9995.00000000
        9995.00000000    9995.00000000    9995.00000000    9995.00000000    9995.00000000    9995.00000000    9995.00000000    9995.00000000    9995.00000000    9995.00000000    9995.00000000    9995.00000000    9995.00000000    9995.00000000    9995.00000000    9995.00000000    9995.00000000    9995.00000000    9995.00000000    9995.00000000
        9995.00000000    9995.00000000    9995.00000000    9995.00000000    9995.00000000    9995.00000000    9995.00000000    9995.00000000    9995.00000000    9995.00000000    9995.00000000    9995.00000000    9995.00000000    9995.00000000    9995.00000000    9995.00000000    9995.00000000    9995.00000000    9995.00000000    9995.00000000
        9995.00000000    9995.00000000    9995.00000000    9995.00000000    9995.00000000    9995.00000000    9995.00000000    9995.00000000    9995.00000000    9995.00000000    9995.00000000    9995.00000000    9995.00000000    9995.00000000    9995.00000000    9995.00000000    9995.00000000    9995.00000000    9995.00000000    9995.00000000
        9995.00000000    9995.00000000    9995.00000000    9995.00000000    9995.00000000    9995.00000000    9995.00000000    9995.00000000    9995.00000000    9995.00000000    9995.00000000    9995.00000000    9995.00000000    9995.00000000    9995.00000000    9995.00000000    9995.00000000    9995.00000000    9995.00000000    9995.00000000
        9995.00000000    9995.00000000    9995.00000000    9995.00000000    9995.00000000    9995.00000000    9995.00000000    9995.00000000    9995.00000000    9995.00000000    9995.00000000    9995.00000000    9995.00000000    9995.00000000    9995.00000000    9995.00000000     -21.70000076     -22.70000076     -27.70000076     -31.00000000
         -33.50000000     -35.00000000     -45.03105164     -46.32661057     -46.64445114     -46.96509933     -47.02307892     -46.56151962     -46.06819916     -45.37855911     -44.63491821     -43.83874130     -43.05046082     -42.40105057     -41.85697174     -41.31557846     -40.97624969     -41.04346085     -41.14635086     -41.30767059
         -41.80501938     -42.40148163     -43.00223923     -43.79381943     -44.73723984     -45.68038940     -46.69924927     -47.89054108     -48.74164963     -49.97610855     -51.35718155     -52.78659058     -54.21781158     -55.75167084     -57.37469101     -58.99747849     -60.66859055     -62.45335007     -64.24994659     -66.06088257
         -67.97514343     -69.92427063     -71.87378693     -73.88900757     -75.96517944     -78.04128265     -80.14222717     -82.30914307     -84.20301056     -86.38421631     -88.60764313     -90.84706116     -93.08656311     -95.34073639     -97.60959625     -99.87860107    -102.14640045    -104.41120148    -106.67549896    -108.93710327
        -111.17420197    -113.40190125    -115.62940216    -117.82599640    -119.98909760    -122.15180206    -124.29489899    -126.37779999    -128.17970276    -130.58610535    -132.57650757    -134.54789734    -136.51669312    -138.42080688    -140.27929688    -142.13769531    -143.95869446    -145.70759583    -147.45089722    -149.18040466
        -150.83410645    -152.46699524    -154.09820557    -155.67269897    -157.20500183    -158.73719788    -160.24310303    -161.44419861    -162.89140320    -164.32989502    -165.72070312    -167.09649658    -168.47210693    9995.00000000
        9995.00000000    9995.00000000    9995.00000000    9995.00000000    9995.00000000    9995.00000000    9995.00000000    9995.00000000    9995.00000000    9995.00000000    9995.00000000    9995.00000000    9995.00000000    9995.00000000    9995.00000000    9995.00000000    9995.00000000    9995.00000000    9995.00000000    9995.00000000
        9995.00000000    9995.00000000    9995.00000000    9995.00000000    9995.00000000    9995.00000000    9995.00000000    9995.00000000    9995.00000000    9995.00000000    9995.00000000    9995.00000000    9995.00000000    9995.00000000    9995.00000000    9995.00000000    9995.00000000    9995.00000000    9995.00000000    9995.00000000
        9995.00000000    9995.00000000    9995.00000000    9995.00000000    9995.00000000    9995.00000000    9995.00000000    9995.00000000    9995.00000000    9995.00000000    9995.00000000    9995.00000000    9995.00000000    9995.00000000    9995.00000000    9995.00000000    9995.00000000    9995.00000000    9995.00000000    9995.00000000
        9995.00000000    9995.00000000    9995.00000000    9995.00000000    9995.00000000    9995.00000000    9995.00000000    9995.00000000    9995.00000000    9995.00000000    9995.00000000    9995.00000000    9995.00000000    9995.00000000    9995.00000000    9995.00000000    9995.00000000    9995.00000000    9995.00000000    9995.00000000
        9995.00000000    9995.00000000    9995.00000000    9995.00000000    9995.00000000    9995.00000000    9995.00000000    9995.00000000    9995.00000000    9995.00000000    9995.00000000    9995.00000000    9995.00000000    9995.00000000    9995.00000000    9995.00000000    9995.00000000    9995.00000000    9995.00000000    9995.00000000
        9995.00000000    9995.00000000    9995.00000000    9995.00000000    9995.00000000    9995.00000000    9995.00000000    9995.00000000    9995.00000000    9995.00000000    9995.00000000    9995.00000000    9995.00000000    9995.00000000    9995.00000000    9995.00000000    9995.00000000    9995.00000000    9995.00000000    9995.00000000
        9995.00000000    9995.00000000    9995.00000000    9995.00000000    9995.00000000    9995.00000000    9995.00000000    9995.00000000    9995.00000000    9995.00000000    9995.00000000    9995.00000000    9995.00000000     -16.70000076     -17.00000000     -18.79999924     -20.70000076     -22.89999962     -27.70000076     -31.20000076
         -33.70000076     -35.09999847     -44.86999893     -46.30788040     -46.78752136     -47.28551865     -47.55495834     -47.20326996     -46.86220169     -46.37807083     -45.75865173     -45.13021851     -44.51473999     -44.02838135     -43.63557053     -43.25558853     -43.01317978     -43.16273880     -43.32194901     -43.47866058
         -44.04370117     -44.64873886     -45.24689102     -46.03477859     -46.96683121     -47.89062119     -48.86914062     -50.05405045     -50.87385178     -52.05260086     -53.42985916     -54.82897949     -56.22714996     -57.73167038     -59.32416916     -60.91825104     -62.54996109     -64.31680298     -66.08767700     -67.86453247
         -69.76567841     -71.69241333     -73.62551117     -75.62251282     -77.67964935     -79.74347687     -81.82807922     -83.98597717     -85.87522125     -88.04778290     -90.26561737     -92.49810028     -94.73615265     -96.98655701     -99.25029755    -101.51889801    -103.78890228    -106.04910278    -108.31349945    -110.58059692
        -112.81359863    -115.41259766    -117.64209747    -119.82820129    -121.99040222    -124.15350342    -126.29019928    -128.36349487    -130.16389465    -132.23699951    -134.21029663    -136.17810059    -138.14509583    -140.04260254    -141.89529419    -143.74710083    -145.56719971    -147.30290222    -149.03759766    -150.77160645
        -152.40269470    -154.02510071    -155.64720154    -157.20979309    -158.73010254    -160.25059509    -161.75000000    -163.18220520    -164.36940002    -165.80589294    -167.17520142    -168.53849792    -169.90359497    9995.00000000
        9995.00000000    9995.00000000    9995.00000000    9995.00000000    9995.00000000    9995.00000000    9995.00000000    9995.00000000    9995.00000000    9995.00000000    9995.00000000    9995.00000000    9995.00000000    9995.00000000    9995.00000000    9995.00000000    9995.00000000    9995.00000000    9995.00000000    9995.00000000
        9995.00000000    9995.00000000    9995.00000000    9995.00000000    9995.00000000    9995.00000000    9995.00000000    9995.00000000    9995.00000000    9995.00000000    9995.00000000    9995.00000000    9995.00000000    9995.00000000    9995.00000000    9995.00000000    9995.00000000    9995.00000000    9995.00000000    9995.00000000
        9995.00000000    9995.00000000    9995.00000000    9995.00000000    9995.00000000    9995.00000000    9995.00000000    9995.00000000    9995.00000000    9995.00000000    9995.00000000    9995.00000000    9995.00000000    9995.00000000    9995.00000000    9995.00000000    9995.00000000    9995.00000000    9995.00000000    9995.00000000
        9995.00000000    9995.00000000    9995.00000000    9995.00000000    9995.00000000    9995.00000000    9995.00000000    9995.00000000    9995.00000000    9995.00000000    9995.00000000    9995.00000000    9995.00000000    9995.00000000    9995.00000000    9995.00000000    9995.00000000    9995.00000000    9995.00000000    9995.00000000
        9995.00000000    9995.00000000    9995.00000000    9995.00000000    9995.00000000    9995.00000000    9995.00000000    9995.00000000    9995.00000000    9995.00000000    9995.00000000    9995.00000000    9995.00000000    9995.00000000    9995.00000000    9995.00000000    9995.00000000    9995.00000000    9995.00000000    9995.00000000
        9995.00000000    9995.00000000    9995.00000000    9995.00000000    9995.00000000    9995.00000000    9995.00000000    9995.00000000    9995.00000000    9995.00000000    9995.00000000    9995.00000000    9995.00000000    9995.00000000    9995.00000000    9995.00000000    9995.00000000    9995.00000000    9995.00000000    9995.00000000
        9995.00000000    9995.00000000    9995.00000000    9995.00000000    9995.00000000    9995.00000000    9995.00000000    9995.00000000    9995.00000000    9995.00000000     -14.00000000     -12.80000019     -14.19999981     -14.89999962     -15.89999962     -18.60000038     -20.89999962     -22.70000076     -27.60000038     -31.09999847
         -33.79999924     -41.68584061     -44.61803055     -46.16846085     -46.85152817     -47.53797150     -47.94264984     -47.80001831     -47.60895157     -47.24279022     -46.82894897     -46.36922073     -45.91548920     -45.58811951     -45.35987854     -45.13436127     -45.04816818     -45.25526047     -45.49094009     -45.77133942
         -46.30857849     -46.92807007     -47.55181885     -48.32912064     -49.23717117     -50.14533997     -51.12165833     -52.24837875     -53.39199066     -54.20082855     -55.51530075     -56.87659073     -58.23868179     -59.70373917     -61.26203156     -62.82001877     -64.42709351     -66.15502930     -67.89668274     -69.65348816
         -71.52007294     -73.42696381     -75.33448029     -77.31218719     -79.35859680     -81.40553284     -83.48066711     -85.62716675     -87.51255798     -89.67601013     -91.88864136     -94.11985779     -96.35112762     -98.97763824    -101.24510193    -103.51249695    -105.77970123    -108.04630280    -110.31289673    -112.57440186
        -114.81159973    -117.04250336    -119.27159882    -121.46279907    -123.62729645    -125.79180145    -127.92559814    -130.00349426    -131.80340576    -133.86270142    -135.84730530    -137.81190491    -139.77420044    -141.66960144    -143.51570129    -145.36169434    -147.16969299    -148.90209961    -150.62770081    -152.33900452
        -153.97349548    -155.58430481    -157.19299316    -158.74580383    -160.25329590    -161.76049805    -163.24090576    -164.66630554    -165.84060669    -167.25430298    -168.62010193    -169.97070312    -171.32110596    9995.00000000
        9995.00000000    9995.00000000    9995.00000000    9995.00000000    9995.00000000    9995.00000000    9995.00000000    9995.00000000    9995.00000000    9995.00000000    9995.00000000    9995.00000000    9995.00000000    9995.00000000    9995.00000000    9995.00000000    9995.00000000    9995.00000000    9995.00000000    9995.00000000
        9995.00000000    9995.00000000    9995.00000000    9995.00000000    9995.00000000    9995.00000000    9995.00000000    9995.00000000    9995.00000000    9995.00000000    9995.00000000    9995.00000000    9995.00000000    9995.00000000    9995.00000000    9995.00000000    9995.00000000    9995.00000000    9995.00000000    9995.00000000
        9995.00000000    9995.00000000    9995.00000000    9995.00000000    9995.00000000    9995.00000000    9995.00000000    9995.00000000    9995.00000000    9995.00000000    9995.00000000    9995.00000000    9995.00000000    9995.00000000    9995.00000000    9995.00000000    9995.00000000    9995.00000000    9995.00000000    9995.00000000
        9995.00000000    9995.00000000    9995.00000000    9995.00000000    9995.00000000    9995.00000000    9995.00000000    9995.00000000    9995.00000000    9995.00000000    9995.00000000    9995.00000000    9995.00000000    9995.00000000    9995.00000000    9995.00000000    9995.00000000    9995.00000000    9995.00000000    9995.00000000
        9995.00000000    9995.00000000    9995.00000000    9995.00000000    9995.00000000    9995.00000000    9995.00000000    9995.00000000    9995.00000000    9995.00000000    9995.00000000    9995.00000000    9995.00000000    9995.00000000    9995.00000000    9995.00000000    9995.00000000    9995.00000000    9995.00000000    9995.00000000
        9995.00000000    9995.00000000    9995.00000000    9995.00000000    9995.00000000    9995.00000000    9995.00000000    9995.00000000    9995.00000000    9995.00000000    9995.00000000    9995.00000000    9995.00000000    9995.00000000    9995.00000000    9995.00000000    9995.00000000    9995.00000000    9995.00000000    9995.00000000
        9995.00000000    9995.00000000    9995.00000000    9995.00000000    9995.00000000    9995.00000000    9995.00000000     -10.69999981     -11.30000019     -11.80000019     -11.10000038     -12.50000000     -12.80000019     -13.10000038     -16.79999924     -18.70000076     -19.50000000     -22.39999962     -27.39999962     -30.10000038
         -33.90000153     -41.15361023     -44.31702042     -46.01171875     -46.89337921     -47.77841949     -48.36309052     -48.38534164     -48.34518051     -48.12648010     -47.88330078     -47.58946991     -47.30435181     -47.13547134     -47.06554031     -46.99932861     -47.05395126     -47.33963013     -47.65724945     -48.01655960
         -48.57823181     -49.21532822     -49.85779190     -50.62994003     -51.51768112     -52.40658188     -53.35976028     -54.44939041     -55.55744171     -56.33507156     -57.60443115     -58.92638016     -60.25122833     -61.67646027     -63.19682312     -64.71856689     -66.29369354     -67.98725891     -69.69921112     -71.42926788
         -73.26828766     -75.15325165     -77.03959656     -78.99817657     -81.02928925     -83.06191254     -85.47650146     -87.61978912     -89.49765015     -91.66124725     -93.87506866     -96.10375977     -98.33412170    -100.58660126    -102.85500336    -105.12349701    -107.39230347    -109.66169739    -111.93109894    -114.19509888
        -116.43609619    -118.67009735    -120.90190125    -123.09649658    -125.26309967    -127.42970276    -129.56469727    -131.64360046    -133.44329834    -135.49969482    -137.48519897    -139.44670105    -141.40449524    -143.29730225    -145.13749695    -146.97720337    -148.77690125    -150.50250244    -152.21879578    -153.91929626
        -155.54479980    -157.14379883    -158.74029541    -160.28169250    -161.77619934    -163.27020264    -164.73710632    -166.14959717    -167.31010437    -168.70860291    -170.06300354    -171.40020752    -172.73719788    9995.00000000
        9995.00000000    9995.00000000    9995.00000000    9995.00000000    9995.00000000    9995.00000000    9995.00000000    9995.00000000    9995.00000000    9995.00000000    9995.00000000    9995.00000000    9995.00000000    9995.00000000    9995.00000000    9995.00000000    9995.00000000    9995.00000000    9995.00000000    9995.00000000
        9995.00000000    9995.00000000    9995.00000000    9995.00000000    9995.00000000    9995.00000000    9995.00000000    9995.00000000    9995.00000000    9995.00000000    9995.00000000    9995.00000000    9995.00000000    9995.00000000    9995.00000000    9995.00000000    9995.00000000    9995.00000000    9995.00000000    9995.00000000
        9995.00000000    9995.00000000    9995.00000000    9995.00000000    9995.00000000    9995.00000000    9995.00000000    9995.00000000    9995.00000000    9995.00000000    9995.00000000    9995.00000000    9995.00000000    9995.00000000    9995.00000000    9995.00000000    9995.00000000    9995.00000000    9995.00000000    9995.00000000
        9995.00000000    9995.00000000    9995.00000000    9995.00000000    9995.00000000    9995.00000000    9995.00000000    9995.00000000    9995.00000000    9995.00000000    9995.00000000    9995.00000000    9995.00000000    9995.00000000    9995.00000000    9995.00000000    9995.00000000    9995.00000000    9995.00000000    9995.00000000