BEGIN options
  SAVE_FLOWS
END options

BEGIN dimensions
  MAXBOUND  10294
END dimensions

BEGIN period  1
  1 37 115  3.66065312E-09
  1 38 113  3.66065312E-09
  1 38 114  4.42351598E-09
  1 38 115  4.42351598E-09
  1 38 116  3.66065312E-09
  1 39 111  3.66065312E-09
  1 39 112  4.42351598E-09
  1 39 113  4.42351598E-09
  1 39 114  4.42351598E-09
  1 39 115  4.42351598E-09
  1 39 116  4.42351598E-09
  1 39 117  4.42351598E-09
  1 39 118  3.66065312E-09
  1 40 107  3.66065312E-09
  1 40 108  3.66065312E-09
  1 40 109  3.66065312E-09
  1 40 110  3.66065312E-09
  1 40 111  4.42351598E-09
  1 40 112  4.42351598E-09
  1 40 113  4.42351598E-09
  1 40 114  4.42351598E-09
  1 40 115  4.42351598E-09
  1 40 116  4.42351598E-09
  1 40 117  4.42351598E-09
  1 40 118  4.42351598E-09
  1 40 119  3.66065312E-09
  1 41 107  3.66065312E-09
  1 41 108  3.66065312E-09
  1 41 109  4.42351598E-09
  1 41 110  4.42351598E-09
  1 41 111  4.42351598E-09
  1 41 112  4.42351598E-09
  1 41 113  4.42351598E-09
  1 41 114  4.42351598E-09
  1 41 115  4.42351598E-09
  1 41 116  4.42351598E-09
  1 41 117  4.42351598E-09
  1 41 118  4.42351598E-09
  1 41 119  4.42351598E-09
  1 41 120  4.42351598E-09
  1 41 121  3.66065312E-09
  1 42 106  3.66065312E-09
  1 42 107  3.66065312E-09
  1 42 108  4.42351598E-09
  1 42 109  4.42351598E-09
  1 42 110  4.42351598E-09
  1 42 111  4.42351598E-09
  1 42 112  4.42351598E-09
  1 42 113  4.42351598E-09
  1 42 114  4.42351598E-09
  1 42 115  4.42351598E-09
  1 42 116  4.42351598E-09
  1 42 117  4.42351598E-09
  1 42 118  4.42351598E-09
  1 42 119  4.42351598E-09
  1 42 120  4.42351598E-09
  1 42 121  4.42351598E-09
  1 42 122  3.66065312E-09
  1 43 101  3.66065312E-09
  1 43 102  3.66065312E-09
  1 43 106  4.42351598E-09
  1 43 107  4.42351598E-09
  1 43 108  4.42351598E-09
  1 43 109  4.42351598E-09
  1 43 110  4.42351598E-09
  1 43 111  4.42351598E-09
  1 43 112  4.42351598E-09
  1 43 113  4.42351598E-09
  1 43 114  4.42351598E-09
  1 43 115  4.42351598E-09
  1 43 116  4.42351598E-09
  1 43 117  4.42351598E-09
  1 43 118  4.42351598E-09
  1 43 119  4.42351598E-09
  1 43 120  4.42351598E-09
  1 43 121  4.42351598E-09
  1 43 122  4.42351598E-09
  1 43 123  4.42351598E-09
  1 43 124  3.66065312E-09
  1 44 97  3.66065312E-09
  1 44 98  4.42351598E-09
  1 44 99  4.42351598E-09
  1 44 100  4.42351598E-09
  1 44 101  4.42351598E-09
  1 44 102  4.42351598E-09
  1 44 103  4.42351598E-09
  1 44 104  4.42351598E-09
  1 44 105  4.42351598E-09
  1 44 106  4.42351598E-09
  1 44 107  4.42351598E-09
  1 44 108  4.42351598E-09
  1 44 109  4.42351598E-09
  1 44 110  4.42351598E-09
  1 44 111  4.42351598E-09
  1 44 112  4.42351598E-09
  1 44 113  4.42351598E-09
  1 44 114  4.42351598E-09
  1 44 115  4.42351598E-09
  1 44 116  4.42351598E-09
  1 44 117  4.42351598E-09
  1 44 118  4.42351598E-09
  1 44 119  4.42351598E-09
  1 44 120  4.42351598E-09
  1 44 121  4.42351598E-09
  1 44 122  4.42351598E-09
  1 44 123  4.42351598E-09
  1 44 124  4.42351598E-09
  1 44 125  6.00900558E-09
  1 45 96  3.66065312E-09
  1 45 97  3.66065312E-09
  1 45 98  4.42351598E-09
  1 45 99  4.42351598E-09
  1 45 100  4.42351598E-09
  1 45 101  4.42351598E-09
  1 45 102  4.42351598E-09
  1 45 103  4.42351598E-09
  1 45 104  4.42351598E-09
  1 45 105  4.42351598E-09
  1 45 106  4.42351598E-09
  1 45 107  4.42351598E-09
  1 45 108  4.42351598E-09
  1 45 109  4.42351598E-09
  1 45 110  4.42351598E-09
  1 45 111  4.42351598E-09
  1 45 112  4.42351598E-09
  1 45 113  4.42351598E-09
  1 45 114  4.42351598E-09
  1 45 115  4.42351598E-09
  1 45 116  4.42351598E-09
  1 45 117  4.42351598E-09
  1 45 118  4.42351598E-09
  1 45 119  4.42351598E-09
  1 45 120  4.42351598E-09
  1 45 121  4.42351598E-09
  1 45 122  4.42351598E-09
  1 45 123  4.42351598E-09
  1 45 124  4.42351598E-09
  1 45 125  6.00900558E-09
  1 45 126  6.00900558E-09
  1 45 127  3.66065312E-09
  1 46 96  3.66065312E-09
  1 46 97  3.66065312E-09
  1 46 98  4.42351598E-09
  1 46 99  4.42351598E-09
  1 46 100  4.42351598E-09
  1 46 101  4.42351598E-09
  1 46 102  4.42351598E-09
  1 46 103  4.42351598E-09
  1 46 104  4.42351598E-09
  1 46 105  4.42351598E-09
  1 46 106  4.42351598E-09
  1 46 107  4.42351598E-09
  1 46 108  4.42351598E-09
  1 46 109  4.42351598E-09
  1 46 110  4.42351598E-09
  1 46 111  4.42351598E-09
  1 46 112  4.42351598E-09
  1 46 113  4.42351598E-09
  1 46 114  4.42351598E-09
  1 46 115  4.42351598E-09
  1 46 116  4.42351598E-09
  1 46 117  4.42351598E-09
  1 46 118  4.42351598E-09
  1 46 119  4.42351598E-09
  1 46 120  4.42351598E-09
  1 46 121  4.42351598E-09
  1 46 122  4.42351598E-09
  1 46 123  4.42351598E-09
  1 46 124  4.42351598E-09
  1 46 125  6.00900558E-09
  1 46 126  6.00900558E-09
  1 46 127  6.00900558E-09
  1 46 128  6.00900558E-09
  1 47 96  3.66065312E-09
  1 47 97  4.80403349E-09
  1 47 98  4.42351598E-09
  1 47 99  4.42351598E-09
  1 47 100  4.42351598E-09
  1 47 101  4.42351598E-09
  1 47 102  4.42351598E-09
  1 47 103  4.42351598E-09
  1 47 104  4.42351598E-09
  1 47 105  4.42351598E-09
  1 47 106  4.42351598E-09
  1 47 107  4.42351598E-09
  1 47 108  4.42351598E-09
  1 47 109  4.42351598E-09
  1 47 110  4.42351598E-09
  1 47 111  4.42351598E-09
  1 47 112  4.42351598E-09
  1 47 113  4.42351598E-09
  1 47 114  4.42351598E-09
  1 47 115  4.42351598E-09
  1 47 116  4.42351598E-09
  1 47 117  4.42351598E-09
  1 47 118  4.42351598E-09
  1 47 119  4.42351598E-09
  1 47 120  4.42351598E-09
  1 47 121  4.42351598E-09
  1 47 122  4.42351598E-09
  1 47 123  4.42351598E-09
  1 47 124  4.42351598E-09
  1 47 125  6.00900558E-09
  1 47 126  6.00900558E-09
  1 47 127  6.00900558E-09
  1 47 128  6.00900558E-09
  1 47 129  6.00900558E-09
  1 47 130  3.66065312E-09
  1 48 95  4.80403349E-09
  1 48 96  4.80403349E-09
  1 48 97  4.80403349E-09
  1 48 98  4.42351598E-09
  1 48 99  4.42351598E-09
  1 48 100  4.42351598E-09
  1 48 101  4.42351598E-09
  1 48 102  4.42351598E-09
  1 48 103  4.42351598E-09
  1 48 104  4.42351598E-09
  1 48 105  4.42351598E-09
  1 48 106  4.42351598E-09
  1 48 107  4.42351598E-09
  1 48 108  4.42351598E-09
  1 48 109  4.42351598E-09
  1 48 110  4.42351598E-09
  1 48 111  4.42351598E-09
  1 48 112  4.42351598E-09
  1 48 113  4.42351598E-09
  1 48 114  4.42351598E-09
  1 48 115  4.42351598E-09
  1 48 116  4.42351598E-09
  1 48 117  4.42351598E-09
  1 48 118  4.42351598E-09
  1 48 119  4.42351598E-09
  1 48 120  4.42351598E-09
  1 48 121  4.42351598E-09
  1 48 122  4.42351598E-09
  1 48 123  4.42351598E-09
  1 48 124  4.42351598E-09
  1 48 125  6.00900558E-09
  1 48 126  6.00900558E-09
  1 48 127  6.00900558E-09
  1 48 128  6.00900558E-09
  1 48 129  6.00900558E-09
  1 48 130  6.00900558E-09
  1 48 131  3.66065312E-09
  1 49 95  4.80403349E-09
  1 49 96  4.80403349E-09
  1 49 97  4.80403349E-09
  1 49 98  4.42351598E-09
  1 49 99  4.42351598E-09
  1 49 100  4.42351598E-09
  1 49 101  4.42351598E-09
  1 49 102  4.42351598E-09
  1 49 103  4.42351598E-09
  1 49 104  4.42351598E-09
  1 49 105  4.42351598E-09
  1 49 106  4.42351598E-09
  1 49 107  4.42351598E-09
  1 49 108  4.42351598E-09
  1 49 109  4.42351598E-09
  1 49 110  4.42351598E-09
  1 49 111  4.42351598E-09
  1 49 112  4.42351598E-09
  1 49 113  4.42351598E-09
  1 49 114  4.42351598E-09
  1 49 115  4.42351598E-09
  1 49 116  4.42351598E-09
  1 49 117  4.42351598E-09
  1 49 118  4.42351598E-09
  1 49 119  4.42351598E-09
  1 49 120  4.42351598E-09
  1 49 121  4.42351598E-09
  1 49 122  4.42351598E-09
  1 49 123  4.42351598E-09
  1 49 124  4.42351598E-09
  1 49 125  6.00900558E-09
  1 49 126  6.00900558E-09
  1 49 127  6.00900558E-09
  1 49 128  6.00900558E-09
  1 49 129  6.00900558E-09
  1 49 130  6.00900558E-09
  1 50 92  3.66065312E-09
  1 50 93  4.80403349E-09
  1 50 94  4.80403349E-09
  1 50 95  4.80403349E-09
  1 50 96  4.80403349E-09
  1 50 97  4.80403349E-09
  1 50 98  4.42351598E-09
  1 50 99  4.42351598E-09
  1 50 100  4.42351598E-09
  1 50 101  4.42351598E-09
  1 50 102  4.42351598E-09
  1 50 103  4.42351598E-09
  1 50 104  4.42351598E-09
  1 50 105  4.42351598E-09
  1 50 106  4.42351598E-09
  1 50 107  4.42351598E-09
  1 50 108  4.42351598E-09
  1 50 109  4.42351598E-09
  1 50 110  4.42351598E-09
  1 50 111  4.42351598E-09
  1 50 112  4.42351598E-09
  1 50 113  4.42351598E-09
  1 50 114  4.42351598E-09
  1 50 115  4.42351598E-09
  1 50 116  4.42351598E-09
  1 50 117  4.42351598E-09
  1 50 118  4.42351598E-09
  1 50 119  4.42351598E-09
  1 50 120  4.42351598E-09
  1 50 121  4.42351598E-09
  1 50 122  4.42351598E-09
  1 50 123  4.42351598E-09
  1 50 124  4.42351598E-09
  1 50 125  6.00900558E-09
  1 50 126  6.00900558E-09
  1 50 127  6.00900558E-09
  1 50 128  6.00900558E-09
  1 50 129  6.00900558E-09
  1 50 130  6.00900558E-09
  1 51 85  3.66065312E-09
  1 51 86  4.80403349E-09
  1 51 87  3.66065312E-09
  1 51 88  3.66065312E-09
  1 51 90  3.66065312E-09
  1 51 91  3.66065312E-09
  1 51 92  4.80403349E-09
  1 51 93  4.80403349E-09
  1 51 94  4.80403349E-09
  1 51 95  4.80403349E-09
  1 51 96  4.80403349E-09
  1 51 97  4.80403349E-09
  1 51 98  4.42351598E-09
  1 51 99  4.42351598E-09
  1 51 100  4.42351598E-09
  1 51 101  4.42351598E-09
  1 51 102  4.42351598E-09
  1 51 103  4.42351598E-09
  1 51 104  4.42351598E-09
  1 51 105  4.42351598E-09
  1 51 106  4.42351598E-09
  1 51 107  4.42351598E-09
  1 51 108  4.42351598E-09
  1 51 109  4.42351598E-09
  1 51 110  4.42351598E-09
  1 51 111  4.42351598E-09
  1 51 112  4.42351598E-09
  1 51 113  4.42351598E-09
  1 51 114  4.42351598E-09
  1 51 115  4.42351598E-09
  1 51 116  4.42351598E-09
  1 51 117  4.42351598E-09
  1 51 118  4.42351598E-09
  1 51 119  4.42351598E-09
  1 51 120  4.42351598E-09
  1 51 121  4.42351598E-09
  1 51 122  4.42351598E-09
  1 51 123  4.42351598E-09
  1 51 124  4.42351598E-09
  1 51 125  6.00900558E-09
  1 51 126  6.00900558E-09
  1 51 127  6.00900558E-09
  1 51 128  6.00900558E-09
  1 51 129  6.00900558E-09
  1 51 130  6.00900558E-09
  1 52 85  3.66065312E-09
  1 52 86  4.80403349E-09
  1 52 87  4.80403349E-09
  1 52 88  4.80403349E-09
  1 52 89  4.80403349E-09
  1 52 90  3.66065312E-09
  1 52 91  4.80403349E-09
  1 52 92  4.80403349E-09
  1 52 93  4.80403349E-09
  1 52 94  4.80403349E-09
  1 52 95  4.80403349E-09
  1 52 96  4.80403349E-09
  1 52 97  4.80403349E-09
  1 52 98  4.42351598E-09
  1 52 99  4.42351598E-09
  1 52 100  4.42351598E-09
  1 52 101  4.42351598E-09
  1 52 102  4.42351598E-09
  1 52 103  4.42351598E-09
  1 52 104  4.42351598E-09
  1 52 105  4.42351598E-09
  1 52 106  4.42351598E-09
  1 52 107  4.42351598E-09
  1 52 108  4.42351598E-09
  1 52 109  4.42351598E-09
  1 52 110  4.42351598E-09
  1 52 111  4.42351598E-09
  1 52 112  4.42351598E-09
  1 52 113  4.42351598E-09
  1 52 114  4.42351598E-09
  1 52 115  4.42351598E-09
  1 52 116  4.42351598E-09
  1 52 117  4.42351598E-09
  1 52 118  4.42351598E-09
  1 52 119  4.42351598E-09
  1 52 120  4.42351598E-09
  1 52 121  4.42351598E-09
  1 52 122  4.42351598E-09
  1 52 123  4.42351598E-09
  1 52 124  4.42351598E-09
  1 52 125  6.00900558E-09
  1 52 126  6.00900558E-09
  1 52 127  6.00900558E-09
  1 52 128  6.00900558E-09
  1 52 129  6.00900558E-09
  1 52 130  6.00900558E-09
  1 53 86  4.80403349E-09
  1 53 87  4.80403349E-09
  1 53 88  4.80403349E-09
  1 53 89  4.80403349E-09
  1 53 90  4.80403349E-09
  1 53 91  4.80403349E-09
  1 53 92  4.80403349E-09
  1 53 93  4.80403349E-09
  1 53 94  4.80403349E-09
  1 53 95  4.80403349E-09
  1 53 96  4.80403349E-09
  1 53 97  4.80403349E-09
  1 53 98  4.42351598E-09
  1 53 99  4.42351598E-09
  1 53 100  4.42351598E-09
  1 53 101  4.42351598E-09
  1 53 102  4.42351598E-09
  1 53 103  4.42351598E-09
  1 53 104  4.42351598E-09
  1 53 105  4.42351598E-09
  1 53 106  4.42351598E-09
  1 53 107  4.42351598E-09
  1 53 108  4.42351598E-09
  1 53 109  4.42351598E-09
  1 53 110  4.42351598E-09
  1 53 111  4.42351598E-09
  1 53 112  4.42351598E-09
  1 53 113  4.42351598E-09
  1 53 114  4.42351598E-09
  1 53 115  4.42351598E-09
  1 53 116  4.42351598E-09
  1 53 117  4.42351598E-09
  1 53 118  4.42351598E-09
  1 53 119  4.42351598E-09
  1 53 120  4.42351598E-09
  1 53 121  4.42351598E-09
  1 53 122  4.42351598E-09
  1 53 123  4.42351598E-09
  1 53 124  4.42351598E-09
  1 53 125  6.00900558E-09
  1 53 126  6.00900558E-09
  1 53 127  6.00900558E-09
  1 53 128  6.00900558E-09
  1 53 129  6.00900558E-09
  1 53 130  6.00900558E-09
  1 54 79  3.66065312E-09
  1 54 80  3.66065312E-09
  1 54 82  3.66065312E-09
  1 54 83  3.66065312E-09
  1 54 84  3.66065312E-09
  1 54 85  3.66065312E-09
  1 54 87  4.80403349E-09
  1 54 88  4.80403349E-09
  1 54 89  4.80403349E-09
  1 54 90  4.80403349E-09
  1 54 91  4.80403349E-09
  1 54 92  4.80403349E-09
  1 54 93  4.80403349E-09
  1 54 94  4.80403349E-09
  1 54 95  4.80403349E-09
  1 54 96  4.80403349E-09
  1 54 97  4.80403349E-09
  1 54 98  4.42351598E-09
  1 54 99  4.42351598E-09
  1 54 100  4.42351598E-09
  1 54 101  4.42351598E-09
  1 54 102  4.42351598E-09
  1 54 103  4.42351598E-09
  1 54 104  4.42351598E-09
  1 54 105  4.42351598E-09
  1 54 106  4.42351598E-09
  1 54 107  4.42351598E-09
  1 54 108  4.42351598E-09
  1 54 109  4.42351598E-09
  1 54 110  4.42351598E-09
  1 54 111  4.42351598E-09
  1 54 112  4.42351598E-09
  1 54 113  4.42351598E-09
  1 54 114  4.42351598E-09
  1 54 115  4.42351598E-09
  1 54 116  4.42351598E-09
  1 54 117  4.42351598E-09
  1 54 118  4.42351598E-09
  1 54 119  4.42351598E-09
  1 54 120  4.42351598E-09
  1 54 121  4.42351598E-09
  1 54 122  4.42351598E-09
  1 54 123  4.42351598E-09
  1 54 124  4.42351598E-09
  1 54 125  6.00900558E-09
  1 54 126  6.00900558E-09
  1 54 127  6.00900558E-09
  1 54 128  6.00900558E-09
  1 54 129  6.00900558E-09
  1 54 130  6.00900558E-09
  1 55 78  3.66065312E-09
  1 55 79  3.66065312E-09
  1 55 80  3.66065312E-09
  1 55 81  4.80403349E-09
  1 55 82  4.80403349E-09
  1 55 83  4.80403349E-09
  1 55 84  4.80403349E-09
  1 55 85  4.80403349E-09
  1 55 86  4.80403349E-09
  1 55 87  4.80403349E-09
  1 55 88  4.80403349E-09
  1 55 89  4.80403349E-09
  1 55 90  4.80403349E-09
  1 55 91  4.80403349E-09
  1 55 92  4.80403349E-09
  1 55 93  4.80403349E-09
  1 55 94  4.80403349E-09
  1 55 95  4.80403349E-09
  1 55 96  4.80403349E-09
  1 55 97  4.80403349E-09
  1 55 98  4.42351598E-09
  1 55 99  4.42351598E-09
  1 55 100  4.42351598E-09
  1 55 101  4.42351598E-09
  1 55 102  4.42351598E-09
  1 55 103  4.42351598E-09
  1 55 104  4.42351598E-09
  1 55 105  4.42351598E-09
  1 55 106  4.42351598E-09
  1 55 107  4.42351598E-09
  1 55 108  4.42351598E-09
  1 55 109  4.42351598E-09
  1 55 110  4.42351598E-09
  1 55 111  4.42351598E-09
  1 55 112  4.42351598E-09
  1 55 113  4.42351598E-09
  1 55 114  4.42351598E-09
  1 55 115  4.42351598E-09
  1 55 116  4.42351598E-09
  1 55 117  4.42351598E-09
  1 55 118  4.42351598E-09
  1 55 119  4.42351598E-09
  1 55 120  4.42351598E-09
  1 55 121  4.42351598E-09
  1 55 122  4.42351598E-09
  1 55 123  4.42351598E-09
  1 55 124  4.42351598E-09
  1 55 125  6.00900558E-09
  1 55 126  6.00900558E-09
  1 55 127  6.00900558E-09
  1 55 128  6.00900558E-09
  1 55 129  6.00900558E-09
  1 55 130  6.00900558E-09
  1 56 76  3.66065312E-09
  1 56 77  3.66065312E-09
  1 56 78  4.80403349E-09
  1 56 79  4.80403349E-09
  1 56 80  4.80403349E-09
  1 56 81  4.80403349E-09
  1 56 82  4.80403349E-09
  1 56 83  4.80403349E-09
  1 56 84  4.80403349E-09
  1 56 85  4.80403349E-09
  1 56 86  4.80403349E-09
  1 56 87  4.80403349E-09
  1 56 88  4.80403349E-09
  1 56 89  4.80403349E-09
  1 56 90  4.80403349E-09
  1 56 91  4.80403349E-09
  1 56 92  4.80403349E-09
  1 56 93  4.80403349E-09
  1 56 94  4.80403349E-09
  1 56 95  4.80403349E-09
  1 56 96  4.80403349E-09
  1 56 97  4.80403349E-09
  1 56 98  4.42351598E-09
  1 56 99  4.42351598E-09
  1 56 100  4.42351598E-09
  1 56 101  4.42351598E-09
  1 56 102  4.42351598E-09
  1 56 103  4.42351598E-09
  1 56 104  4.42351598E-09
  1 56 105  4.42351598E-09
  1 56 106  4.42351598E-09
  1 56 107  4.42351598E-09
  1 56 108  4.42351598E-09
  1 56 109  4.42351598E-09
  1 56 110  4.42351598E-09
  1 56 111  4.42351598E-09
  1 56 112  4.42351598E-09
  1 56 113  4.42351598E-09
  1 56 114  4.42351598E-09
  1 56 115  4.42351598E-09
  1 56 116  4.42351598E-09
  1 56 117  4.42351598E-09
  1 56 118  4.42351598E-09
  1 56 119  4.42351598E-09
  1 56 120  4.42351598E-09
  1 56 121  4.42351598E-09
  1 56 122  4.42351598E-09
  1 56 123  4.42351598E-09
  1 56 124  4.42351598E-09
  1 56 125  6.00900558E-09
  1 56 126  6.00900558E-09
  1 56 127  6.00900558E-09
  1 56 128  6.00900558E-09
  1 56 129  6.00900558E-09
  1 56 130  6.00900558E-09
  1 57 74  3.66065312E-09
  1 57 75  3.66065312E-09
  1 57 76  4.31253171E-09
  1 57 77  4.31253171E-09
  1 57 78  4.31253171E-09
  1 57 79  4.31253171E-09
  1 57 80  4.31253171E-09
  1 57 81  4.31253171E-09
  1 57 82  4.31253171E-09
  1 57 83  4.31253171E-09
  1 57 84  4.31253171E-09
  1 57 85  4.31253171E-09
  1 57 86  4.31253171E-09
  1 57 87  4.31253171E-09
  1 57 88  4.31253171E-09
  1 57 89  4.31253171E-09
  1 57 90  4.31253171E-09
  1 57 91  4.31253171E-09
  1 57 92  4.31253171E-09
  1 57 93  4.31253171E-09
  1 57 94  4.31253171E-09
  1 57 95  4.31253171E-09
  1 57 96  4.31253171E-09
  1 57 97  4.31253171E-09
  1 57 98  4.20154744E-09
  1 57 99  4.20154744E-09
  1 57 100  4.20154744E-09
  1 57 101  4.20154744E-09
  1 57 102  4.20154744E-09
  1 57 103  4.20154744E-09
  1 57 104  4.20154744E-09
  1 57 105  4.20154744E-09
  1 57 106  4.20154744E-09
  1 57 107  4.20154744E-09
  1 57 108  4.20154744E-09
  1 57 109  4.20154744E-09
  1 57 110  4.20154744E-09
  1 57 111  4.20154744E-09
  1 57 112  4.20154744E-09
  1 57 113  4.20154744E-09
  1 57 114  4.20154744E-09
  1 57 115  4.20154744E-09
  1 57 116  4.20154744E-09
  1 57 117  4.20154744E-09
  1 57 118  4.20154744E-09
  1 57 119  4.20154744E-09
  1 57 120  4.20154744E-09
  1 57 121  4.20154744E-09
  1 57 122  4.20154744E-09
  1 57 123  4.20154744E-09
  1 57 124  4.20154744E-09
  1 57 125  6.18340944E-09
  1 57 126  6.18340944E-09
  1 57 127  6.18340944E-09
  1 57 128  6.18340944E-09
  1 57 129  6.18340944E-09
  1 57 130  6.18340944E-09
  1 58 72  3.66065312E-09
  1 58 73  3.66065312E-09
  1 58 74  4.31253171E-09
  1 58 75  4.31253171E-09
  1 58 76  4.31253171E-09
  1 58 77  4.31253171E-09
  1 58 78  4.31253171E-09
  1 58 79  4.31253171E-09
  1 58 80  4.31253171E-09
  1 58 81  4.31253171E-09
  1 58 82  4.31253171E-09
  1 58 83  4.31253171E-09
  1 58 84  4.31253171E-09
  1 58 85  4.31253171E-09
  1 58 86  4.31253171E-09
  1 58 87  4.31253171E-09
  1 58 88  4.31253171E-09
  1 58 89  4.31253171E-09
  1 58 90  4.31253171E-09
  1 58 91  4.31253171E-09
  1 58 92  4.31253171E-09
  1 58 93  4.31253171E-09
  1 58 94  4.31253171E-09
  1 58 95  4.31253171E-09
  1 58 96  4.31253171E-09
  1 58 97  4.31253171E-09
  1 58 98  4.20154744E-09
  1 58 99  4.20154744E-09
  1 58 100  4.20154744E-09
  1 58 101  4.20154744E-09
  1 58 102  4.20154744E-09
  1 58 103  4.20154744E-09
  1 58 104  4.20154744E-09
  1 58 105  4.20154744E-09
  1 58 106  4.20154744E-09
  1 58 107  4.20154744E-09
  1 58 108  4.20154744E-09
  1 58 109  4.20154744E-09
  1 58 110  4.20154744E-09
  1 58 111  4.20154744E-09
  1 58 112  4.20154744E-09
  1 58 113  4.20154744E-09
  1 58 114  4.20154744E-09
  1 58 115  4.20154744E-09
  1 58 116  4.20154744E-09
  1 58 117  4.20154744E-09
  1 58 118  4.20154744E-09
  1 58 119  4.20154744E-09
  1 58 120  4.20154744E-09
  1 58 121  4.20154744E-09
  1 58 122  4.20154744E-09
  1 58 123  4.20154744E-09
  1 58 124  4.20154744E-09
  1 58 125  6.18340944E-09
  1 58 126  6.18340944E-09
  1 58 127  6.18340944E-09
  1 58 128  6.18340944E-09
  1 58 129  6.18340944E-09
  1 58 130  6.18340944E-09
  1 59 70  3.66065312E-09
  1 59 72  3.66065312E-09
  1 59 73  4.31253171E-09
  1 59 74  4.31253171E-09
  1 59 75  4.31253171E-09
  1 59 76  4.31253171E-09
  1 59 77  4.31253171E-09
  1 59 78  4.31253171E-09
  1 59 79  4.31253171E-09
  1 59 80  4.31253171E-09
  1 59 81  4.31253171E-09
  1 59 82  4.31253171E-09
  1 59 83  4.31253171E-09
  1 59 84  4.31253171E-09
  1 59 85  4.31253171E-09
  1 59 86  4.31253171E-09
  1 59 87  4.31253171E-09
  1 59 88  4.31253171E-09
  1 59 89  4.31253171E-09
  1 59 90  4.31253171E-09
  1 59 91  4.31253171E-09
  1 59 92  4.31253171E-09
  1 59 93  4.31253171E-09
  1 59 94  4.31253171E-09
  1 59 95  4.31253171E-09
  1 59 96  4.31253171E-09
  1 59 97  4.31253171E-09
  1 59 98  4.20154744E-09
  1 59 99  4.20154744E-09
  1 59 100  4.20154744E-09
  1 59 101  4.20154744E-09
  1 59 102  4.20154744E-09
  1 59 103  4.20154744E-09
  1 59 104  4.20154744E-09
  1 59 105  4.20154744E-09
  1 59 106  4.20154744E-09
  1 59 107  4.20154744E-09
  1 59 108  4.20154744E-09
  1 59 109  4.20154744E-09
  1 59 110  4.20154744E-09
  1 59 111  4.20154744E-09
  1 59 112  4.20154744E-09
  1 59 113  4.20154744E-09
  1 59 114  4.20154744E-09
  1 59 115  4.20154744E-09
  1 59 116  4.20154744E-09
  1 59 117  4.20154744E-09
  1 59 118  4.20154744E-09
  1 59 119  4.20154744E-09
  1 59 120  4.20154744E-09
  1 59 121  4.20154744E-09
  1 59 122  4.20154744E-09
  1 59 123  4.20154744E-09
  1 59 124  4.20154744E-09
  1 59 125  6.18340944E-09
  1 59 126  6.18340944E-09
  1 59 127  6.18340944E-09
  1 59 128  6.18340944E-09
  1 59 129  6.18340944E-09
  1 59 130  6.18340944E-09
  1 60 70  3.66065312E-09
  1 60 71  3.66065312E-09
  1 60 74  4.31253171E-09
  1 60 75  4.31253171E-09
  1 60 76  4.31253171E-09
  1 60 77  4.31253171E-09
  1 60 78  4.31253171E-09
  1 60 79  4.31253171E-09
  1 60 80  4.31253171E-09
  1 60 81  4.31253171E-09
  1 60 82  4.31253171E-09
  1 60 83  4.31253171E-09
  1 60 84  4.31253171E-09
  1 60 85  4.31253171E-09
  1 60 86  4.31253171E-09
  1 60 87  4.31253171E-09
  1 60 88  4.31253171E-09
  1 60 89  4.31253171E-09
  1 60 90  4.31253171E-09
  1 60 91  4.31253171E-09
  1 60 92  4.31253171E-09
  1 60 93  4.31253171E-09
  1 60 94  4.31253171E-09
  1 60 95  4.31253171E-09
  1 60 96  4.31253171E-09
  1 60 97  4.31253171E-09
  1 60 98  4.20154744E-09
  1 60 99  4.20154744E-09
  1 60 100  4.20154744E-09
  1 60 101  4.20154744E-09
  1 60 102  4.20154744E-09
  1 60 103  4.20154744E-09
  1 60 104  4.20154744E-09
  1 60 105  4.20154744E-09
  1 60 106  4.20154744E-09
  1 60 107  4.20154744E-09
  1 60 108  4.20154744E-09
  1 60 109  4.20154744E-09
  1 60 110  4.20154744E-09
  1 60 111  4.20154744E-09
  1 60 112  4.20154744E-09
  1 60 113  4.20154744E-09
  1 60 114  4.20154744E-09
  1 60 115  4.20154744E-09
  1 60 116  4.20154744E-09
  1 60 117  4.20154744E-09
  1 60 118  4.20154744E-09
  1 60 119  4.20154744E-09
  1 60 120  4.20154744E-09
  1 60 121  4.20154744E-09
  1 60 122  4.20154744E-09
  1 60 123  4.20154744E-09
  1 60 124  4.20154744E-09
  1 60 125  6.18340944E-09
  1 60 126  6.18340944E-09
  1 60 127  6.18340944E-09
  1 60 128  6.18340944E-09
  1 60 129  6.18340944E-09
  1 60 130  6.18340944E-09
  1 61 69  3.66065312E-09
  1 61 70  3.66065312E-09
  1 61 71  4.31253171E-09
  1 61 72  4.31253171E-09
  1 61 73  4.31253171E-09
  1 61 74  4.31253171E-09
  1 61 75  4.31253171E-09
  1 61 76  4.31253171E-09
  1 61 77  4.31253171E-09
  1 61 78  4.31253171E-09
  1 61 79  4.31253171E-09
  1 61 80  4.31253171E-09
  1 61 81  4.31253171E-09
  1 61 82  4.31253171E-09
  1 61 83  4.31253171E-09
  1 61 84  4.31253171E-09
  1 61 85  4.31253171E-09
  1 61 86  4.31253171E-09
  1 61 87  4.31253171E-09
  1 61 88  4.31253171E-09
  1 61 89  4.31253171E-09
  1 61 90  4.31253171E-09
  1 61 91  4.31253171E-09
  1 61 92  4.31253171E-09
  1 61 93  4.31253171E-09
  1 61 94  4.31253171E-09
  1 61 95  4.31253171E-09
  1 61 96  4.31253171E-09
  1 61 97  4.31253171E-09
  1 61 98  4.20154744E-09
  1 61 99  4.20154744E-09
  1 61 100  4.20154744E-09
  1 61 101  4.20154744E-09
  1 61 102  4.20154744E-09
  1 61 103  4.20154744E-09
  1 61 104  4.20154744E-09
  1 61 105  4.20154744E-09
  1 61 106  4.20154744E-09
  1 61 107  4.20154744E-09
  1 61 108  4.20154744E-09
  1 61 109  4.20154744E-09
  1 61 110  4.20154744E-09
  1 61 111  4.20154744E-09
  1 61 112  4.20154744E-09
  1 61 113  4.20154744E-09
  1 61 114  4.20154744E-09
  1 61 115  4.20154744E-09
  1 61 116  4.20154744E-09
  1 61 117  4.20154744E-09
  1 61 118  4.20154744E-09
  1 61 119  4.20154744E-09
  1 61 120  4.20154744E-09
  1 61 121  4.20154744E-09
  1 61 122  4.20154744E-09
  1 61 123  4.20154744E-09
  1 61 124  4.20154744E-09
  1 61 125  6.18340944E-09
  1 61 126  6.18340944E-09
  1 61 127  6.18340944E-09
  1 61 128  6.18340944E-09
  1 61 129  6.18340944E-09
  1 61 130  6.18340944E-09
  1 62 69  3.66065312E-09
  1 62 70  3.66065312E-09
  1 62 71  4.31253171E-09
  1 62 72  4.31253171E-09
  1 62 73  4.31253171E-09
  1 62 74  4.31253171E-09
  1 62 75  4.31253171E-09
  1 62 76  4.31253171E-09
  1 62 77  4.31253171E-09
  1 62 78  4.31253171E-09
  1 62 79  4.31253171E-09
  1 62 80  4.31253171E-09
  1 62 81  4.31253171E-09
  1 62 82  4.31253171E-09
  1 62 83  4.31253171E-09
  1 62 84  4.31253171E-09
  1 62 85  4.31253171E-09
  1 62 86  4.31253171E-09
  1 62 87  4.31253171E-09
  1 62 88  4.31253171E-09
  1 62 89  4.31253171E-09
  1 62 90  4.31253171E-09
  1 62 91  4.31253171E-09
  1 62 92  4.31253171E-09
  1 62 93  4.31253171E-09
  1 62 94  4.31253171E-09
  1 62 95  4.31253171E-09
  1 62 96  4.31253171E-09
  1 62 97  4.31253171E-09
  1 62 98  4.20154744E-09
  1 62 99  4.20154744E-09
  1 62 100  4.20154744E-09
  1 62 101  4.20154744E-09
  1 62 102  4.20154744E-09
  1 62 103  4.20154744E-09
  1 62 104  4.20154744E-09
  1 62 105  4.20154744E-09
  1 62 106  4.20154744E-09
  1 62 107  4.20154744E-09
  1 62 108  4.20154744E-09
  1 62 109  4.20154744E-09
  1 62 110  4.20154744E-09
  1 62 111  4.20154744E-09
  1 62 112  4.20154744E-09
  1 62 113  4.20154744E-09
  1 62 114  4.20154744E-09
  1 62 115  4.20154744E-09
  1 62 116  4.20154744E-09
  1 62 117  4.20154744E-09
  1 62 118  4.20154744E-09
  1 62 119  4.20154744E-09
  1 62 120  4.20154744E-09
  1 62 121  4.20154744E-09
  1 62 122  4.20154744E-09
  1 62 123  4.20154744E-09
  1 62 124  4.20154744E-09
  1 62 125  6.18340944E-09
  1 62 126  6.18340944E-09
  1 62 127  6.18340944E-09
  1 62 128  6.18340944E-09
  1 62 129  6.18340944E-09
  1 63 70  3.66065312E-09
  1 63 71  4.31253171E-09
  1 63 72  4.31253171E-09
  1 63 73  4.31253171E-09
  1 63 74  4.31253171E-09
  1 63 75  4.31253171E-09
  1 63 76  4.31253171E-09
  1 63 77  4.31253171E-09
  1 63 78  4.31253171E-09
  1 63 79  4.31253171E-09
  1 63 80  4.31253171E-09
  1 63 81  4.31253171E-09
  1 63 82  4.31253171E-09
  1 63 83  4.31253171E-09
  1 63 84  4.31253171E-09
  1 63 85  4.31253171E-09
  1 63 86  4.31253171E-09
  1 63 87  4.31253171E-09
  1 63 88  4.31253171E-09
  1 63 89  4.31253171E-09
  1 63 90  4.31253171E-09
  1 63 91  4.31253171E-09
  1 63 92  4.31253171E-09
  1 63 93  4.31253171E-09
  1 63 94  4.31253171E-09
  1 63 95  4.31253171E-09
  1 63 96  4.31253171E-09
  1 63 97  4.31253171E-09
  1 63 98  4.20154744E-09
  1 63 99  4.20154744E-09
  1 63 100  4.20154744E-09
  1 63 101  4.20154744E-09
  1 63 102  4.20154744E-09
  1 63 103  4.20154744E-09
  1 63 104  4.20154744E-09
  1 63 105  4.20154744E-09
  1 63 106  4.20154744E-09
  1 63 107  4.20154744E-09
  1 63 108  4.20154744E-09
  1 63 109  4.20154744E-09
  1 63 110  4.20154744E-09
  1 63 111  4.20154744E-09
  1 63 112  4.20154744E-09
  1 63 113  4.20154744E-09
  1 63 114  4.20154744E-09
  1 63 115  4.20154744E-09
  1 63 116  4.20154744E-09
  1 63 117  4.20154744E-09
  1 63 118  4.20154744E-09
  1 63 119  4.20154744E-09
  1 63 120  4.20154744E-09
  1 63 121  4.20154744E-09
  1 63 122  4.20154744E-09
  1 63 123  4.20154744E-09
  1 63 124  4.20154744E-09
  1 63 125  6.18340944E-09
  1 63 126  6.18340944E-09
  1 63 127  6.18340944E-09
  1 63 128  6.18340944E-09
  1 63 129  6.18340944E-09
  1 63 130  6.18340944E-09
  1 64 71  3.66065312E-09
  1 64 72  4.31253171E-09
  1 64 73  4.31253171E-09
  1 64 74  4.31253171E-09
  1 64 75  4.31253171E-09
  1 64 76  4.31253171E-09
  1 64 77  4.31253171E-09
  1 64 78  4.31253171E-09
  1 64 79  4.31253171E-09
  1 64 80  4.31253171E-09
  1 64 81  4.31253171E-09
  1 64 82  4.31253171E-09
  1 64 83  4.31253171E-09
  1 64 84  4.31253171E-09
  1 64 85  4.31253171E-09
  1 64 86  4.31253171E-09
  1 64 87  4.31253171E-09
  1 64 88  4.31253171E-09
  1 64 89  4.31253171E-09
  1 64 90  4.31253171E-09
  1 64 91  4.31253171E-09
  1 64 92  4.31253171E-09
  1 64 93  4.31253171E-09
  1 64 94  4.31253171E-09
  1 64 95  4.31253171E-09
  1 64 96  4.31253171E-09
  1 64 97  4.31253171E-09
  1 64 98  4.20154744E-09
  1 64 99  4.20154744E-09
  1 64 100  4.20154744E-09
  1 64 101  4.20154744E-09
  1 64 102  4.20154744E-09
  1 64 103  4.20154744E-09
  1 64 104  4.20154744E-09
  1 64 105  4.20154744E-09
  1 64 106  4.20154744E-09
  1 64 107  4.20154744E-09
  1 64 108  4.20154744E-09
  1 64 109  4.20154744E-09
  1 64 110  4.20154744E-09
  1 64 111  4.20154744E-09
  1 64 112  4.20154744E-09
  1 64 113  4.20154744E-09
  1 64 114  4.20154744E-09
  1 64 115  4.20154744E-09
  1 64 116  4.20154744E-09
  1 64 117  4.20154744E-09
  1 64 118  4.20154744E-09
  1 64 119  4.20154744E-09
  1 64 120  4.20154744E-09
  1 64 121  4.20154744E-09
  1 64 122  4.20154744E-09
  1 64 123  4.20154744E-09
  1 64 124  4.20154744E-09
  1 64 125  6.18340944E-09
  1 64 126  6.18340944E-09
  1 64 127  6.18340944E-09
  1 64 128  6.18340944E-09
  1 64 129  6.18340944E-09
  1 64 130  6.18340944E-09
  1 65 73  4.31253171E-09
  1 65 74  4.31253171E-09
  1 65 75  4.31253171E-09
  1 65 76  4.31253171E-09
  1 65 77  4.31253171E-09
  1 65 78  4.31253171E-09
  1 65 79  4.31253171E-09
  1 65 80  4.31253171E-09
  1 65 81  4.31253171E-09
  1 65 82  4.31253171E-09
  1 65 83  4.31253171E-09
  1 65 84  4.31253171E-09
  1 65 85  4.31253171E-09
  1 65 86  4.31253171E-09
  1 65 87  4.31253171E-09
  1 65 88  4.31253171E-09
  1 65 89  4.31253171E-09
  1 65 90  4.31253171E-09
  1 65 91  4.31253171E-09
  1 65 92  4.31253171E-09
  1 65 93  4.31253171E-09
  1 65 94  4.31253171E-09
  1 65 95  4.31253171E-09
  1 65 96  4.31253171E-09
  1 65 97  4.31253171E-09
  1 65 98  4.20154744E-09
  1 65 99  4.20154744E-09
  1 65 100  4.20154744E-09