BEGIN options
  SAVE_FLOWS
END options

BEGIN dimensions
  MAXBOUND  48
END dimensions

BEGIN period  1
  1 109 21     178.53238647       0.01000000     176.53238647
  1 108 21     177.73708023       0.01000000     175.73708023
  1 108 22     173.30328495       0.01000000     171.30328495
  1 108 23     172.00706321       0.01000000     170.00706321
  1 108 24     170.80600411       0.01000000     168.80600411
  1 108 25     170.18394245       0.01000000     168.18394245
  1 107 25     167.53034080       0.01000000     165.53034080
  1 107 26     164.43920266       0.01000000     162.43920266
  1 107 27     161.70575897       0.01000000     159.70575897
  1 106 27     158.56601235       0.01000000     156.56601235
  1 106 28     157.31161214       0.01000000     155.31161214
  1 105 28     156.20410501       0.01000000     154.20410501
  1 105 29     153.03883169       0.01000000     151.03883169
  1 104 29     151.96489755       0.01000000     149.96489755
  1 104 30     150.87789399       0.01000000     148.87789399
  1 104 31     148.35711008       0.01000000     146.35711008
  1 103 31     146.92668815       0.01000000     144.92668815
  1 103 32     143.35843096       0.01000000     141.35843096
  1 102 32     142.47714592       0.01000000     140.47714592
  1 102 33     141.42871126       0.01000000     139.42871126
  1 102 34     140.29307110       0.01000000     138.29307110
  1 101 34     138.45183163       0.01000000     136.45183163
  1 101 35     136.94039478       0.01000000     134.94039478
  1 101 36     135.96546625       0.01000000     133.96546625
  1 100 36     133.11135443       0.01000000     131.11135443
  1 100 37     131.88002634       0.01000000     129.88002634
  1 99 37     131.01866261       0.01000000     129.01866261
  1 99 38     128.21684933       0.01000000     126.21684933
  1 98 38     127.29180023       0.01000000     125.29180023
  1 98 39     126.33483894       0.01000000     124.33483894
  1 98 40     123.17134972       0.01000000     121.17134972
  1 98 41     121.50087323       0.01000000     119.50087323
  1 98 42     117.74554470       0.01000000     115.74554470
  1 98 43     114.00000000       0.01000000     112.00000000
  1 98 44     114.00000000       0.01000000     112.00000000
  1 97 44     113.81484186       0.01000000     111.81484186
  1 97 45     112.86331498       0.01000000     110.86331498
  1 97 46     111.33240799       0.01000000     109.33240799
  1 97 47     108.18196898       0.01000000     106.18196898
  1 97 48     106.51997021       0.01000000     104.51997021
  1 97 49     105.21559045       0.01000000     103.21559045
  1 96 49     103.70578113       0.01000000     101.70578113
  1 96 50     102.76275385       0.01000000     100.76275385
  1 96 51     101.42421485       0.01000000      99.42421485
  1 95 51     100.71276883       0.01000000      98.71276883
  1 95 52      97.58462798       0.01000000      95.58462798
  1 94 52      95.98467221       0.01000000      93.98467221
  1 94 53      93.07895377       0.01000000      91.07895377
END period  1

