BEGIN options
END options

BEGIN timing
  TDIS6  first3D_mf6.tdis
END timing

BEGIN models
  gwf6  3D_4_layers.nam  3D_4_layers
END models

BEGIN exchanges
END exchanges

BEGIN solutiongroup  1
  ims6  first3D_mf6.ims  3D_4_layers
END solutiongroup  1

