BEGIN options
  SAVE_FLOWS
END options

BEGIN dimensions
  MAXBOUND  22
END dimensions

BEGIN period  1
  3 116 33     115.00000000
  3 117 33     115.00000000
  3 127 44     115.00000000
  3 118 34     115.00000000
  3 128 43     115.00000000
  3 118 35     115.00000000
  3 128 42     115.00000000
  3 119 36     115.00000000
  3 120 36     115.00000000
  3 123 41     115.00000000
  3 124 41     115.00000000
  3 125 41     115.00000000
  3 126 41     115.00000000
  3 128 41     115.00000000
  3 128 40     115.00000000
  3 121 37     115.00000000
  3 122 40     115.00000000
  3 127 40     115.00000000
  3 121 38     115.00000000
  3 122 39     115.00000000
  3 115 32     115.00000000
  3 127 45     115.00000000
END period  1

