BEGIN options
  SAVE_FLOWS
END options

BEGIN dimensions
  MAXBOUND  178
END dimensions

BEGIN period  1
  1 105 16     175.74519466       0.01000000     173.74519466
  1 105 17     168.68621918       0.01000000     166.68621918
  1 105 18     156.43798026       0.01000000     154.43798026
  1 105 19     155.54530204       0.01000000     153.54530204
  1 104 19     155.06878470       0.01000000     153.06878470
  1 104 20     153.24072151       0.01000000     151.24072151
  1 104 21     151.72567429       0.01000000     149.72567429
  1 104 22     150.21474849       0.01000000     148.21474849
  1 104 23     148.70438375       0.01000000     146.70438375
  1 104 24     147.01833498       0.01000000     145.01833498
  1 103 24     145.32313212       0.01000000     143.32313212
  1 102 24     143.88983609       0.01000000     141.88983609
  1 102 25     142.95671535       0.01000000     140.95671535
  1 101 25     142.02502059       0.01000000     140.02502059
  1 101 26     140.86750683       0.01000000     138.86750683
  1 100 26     139.77729520       0.01000000     137.77729520
  1 100 27     138.37407257       0.01000000     136.37407257
  1 100 28     136.81491635       0.01000000     134.81491635
  1 100 29     135.28611201       0.01000000     133.28611201
  1 100 30     134.49936373       0.01000000     132.49936373
  1 99 30     133.72403402       0.01000000     131.72403402
  1 99 31     132.08835207       0.01000000     130.08835207
  1 99 32     130.96938259       0.01000000     128.96938259
  1 98 32     127.94730612       0.01000000     125.94730612
  1 97 32     124.54986485       0.01000000     122.54986485
  1 96 32     124.04758115       0.01000000     122.04758115
  1 96 33     123.48449554       0.01000000     121.48449554
  1 95 33     122.79988070       0.01000000     120.79988070
  1 95 34     122.14215901       0.01000000     120.14215901
  1 94 34     121.56634110       0.01000000     119.56634110
  1 94 35     120.91499917       0.01000000     118.91499917
  1 93 35     120.29377054       0.01000000     118.29377054
  1 93 36     116.78082913       0.01000000     114.78082913
  1 93 37     113.91412323       0.01000000     111.91412323
  1 92 37     113.42507514       0.01000000     111.42507514
  1 93 38     112.53762714       0.01000000     110.53762714
  1 93 39     111.56695347       0.01000000     109.56695347
  1 93 40     110.78451161       0.01000000     108.78451161
  1 92 40     110.28659248       0.01000000     108.28659248
  1 92 41     108.15824118       0.01000000     106.15824118
  1 92 42     106.49524477       0.01000000     104.49524477
  1 91 42     105.62513657       0.01000000     103.62513657
  1 91 43     104.00000000       0.01000000     102.00000000
  1 91 44     103.15468016       0.01000000     101.15468016
  1 90 44     102.27601080       0.01000000     100.27601080
  1 90 45     101.10558299       0.01000000      99.10558299
  1 90 46      99.85132735       0.01000000      97.85132735
  1 91 46      99.09719164       0.01000000      97.09719164
  1 91 47      97.73081127       0.01000000      95.73081127
  1 91 48      96.25947778       0.01000000      94.25947778
  1 91 49      94.00000000       0.01000000      92.00000000
  1 91 50      94.00000000       0.01000000      92.00000000
  1 92 50      94.00000000       0.01000000      92.00000000
  1 92 51      94.00000000       0.01000000      92.00000000
  1 92 52      92.71626658       0.01000000      90.71626658
  1 92 53      89.00000000       0.01000000      87.00000000
  1 93 53      89.00000000       0.01000000      87.00000000
  1 93 54      89.00000000       0.01000000      87.00000000
  1 93 55      88.19250019       0.01000000      86.19250019
  1 93 56      86.54665630       0.01000000      84.54665630
  1 93 57      85.58693680       0.01000000      83.58693680
  1 94 57      83.24477807       0.01000000      81.24477807
  1 94 58      81.56152485       0.01000000      79.56152485
  1 94 59      79.00000000       0.01000000      77.00000000
  1 94 60      78.49397282       0.01000000      76.49397282
  1 95 60      77.83932366       0.01000000      75.83932366
  1 95 61      76.99231098       0.01000000      74.99231098
  1 96 61      76.27250960       0.01000000      74.27250960
  1 96 62      75.68342500       0.01000000      73.68342500
  1 96 63      73.17486852       0.01000000      71.17486852
  1 96 64      71.51811240       0.01000000      69.51811240
  1 96 65      68.16666702       0.01000000      66.16666702
  1 96 66      66.51615920       0.01000000      64.51615920
  1 97 66      65.69853793       0.01000000      63.69853793
  1 97 67      64.00000000       0.01000000      62.00000000
  1 96 67      64.00000000       0.01000000      62.00000000
  1 96 68      64.00000000       0.01000000      62.00000000
  1 96 69      64.00000000       0.01000000      62.00000000
  1 96 70      63.21200854       0.01000000      61.21200854
  1 96 71      61.86082410       0.01000000      59.86082410
  1 97 71      61.02731530       0.01000000      59.02731530
  1 97 72      59.00000000       0.01000000      57.00000000
  1 97 73      58.42439090       0.01000000      56.42439090
  1 97 74      57.15807651       0.01000000      55.15807651
  1 97 75      56.43733805       0.01000000      54.43733805
  1 96 75      55.78904637       0.01000000      53.78904637
  1 96 76      53.49411864       0.01000000      51.49411864
  1 96 77      52.47170823       0.01000000      50.47170823
  1 96 78      51.46449048       0.01000000      49.46449048
  1 96 79      50.47220209       0.01000000      48.47220209
  1 96 80      49.00000000       0.01000000      47.00000000
  1 95 80      49.00000000       0.01000000      47.00000000
  1 95 81      49.00000000       0.01000000      47.00000000
  1 95 82      49.00000000       0.01000000      47.00000000
  1 95 83      48.17398529       0.01000000      46.17398529
  1 95 84      46.58716658       0.01000000      44.58716658
  1 94 84      45.73568584       0.01000000      43.73568584
  1 94 85      44.00000000       0.01000000      42.00000000
  1 94 86      43.04792654       0.01000000      41.04792654
  1 94 87      39.69467442       0.01000000      37.69467442
  1 94 88      39.00000000       0.01000000      37.00000000
  1 93 88      39.00000000       0.01000000      37.00000000
  1 93 89      39.00000000       0.01000000      37.00000000
  1 93 90      37.45005105       0.01000000      35.45005105
  1 93 91      34.00000000       0.01000000      32.00000000
  1 92 91      34.00000000       0.01000000      32.00000000
  1 92 92      34.00000000       0.01000000      32.00000000
  1 92 93      34.00000000       0.01000000      32.00000000
  1 91 93      34.00000000       0.01000000      32.00000000
  1 91 94      32.73651422       0.01000000      30.73651422
  1 91 95      29.00000000       0.01000000      27.00000000
  1 91 96      29.00000000       0.01000000      27.00000000
  1 91 97      29.00000000       0.01000000      27.00000000
  1 91 98      29.00000000       0.01000000      27.00000000
  1 91 99      29.00000000       0.01000000      27.00000000
  1 91 100      29.00000000       0.01000000      27.00000000
  1 91 101      29.00000000       0.01000000      27.00000000
  1 90 101      29.00000000       0.01000000      27.00000000
  1 90 102      28.37202335       0.01000000      26.37202335
  1 90 103      27.13436809       0.01000000      25.13436809
  1 90 104      26.11232230       0.01000000      24.11232230
  1 89 104      25.49850361       0.01000000      23.49850361
  1 89 105      23.50562344       0.01000000      21.50562344
  1 89 106      22.51835132       0.01000000      20.51835132
  1 89 107      21.96163537       0.01000000      19.96163537
  1 88 107      21.47430984       0.01000000      19.47430984
  1 88 108      20.51570422       0.01000000      18.51570422
  1 88 109      19.90116143       0.01000000      17.90116143
  1 87 109      18.67436368       0.01000000      16.67436368
  1 87 110      17.97795459       0.01000000      15.97795459
  1 87 111      17.22511365       0.01000000      15.22511365
  1 87 112      16.79236220       0.01000000      14.79236220
  1 86 112      16.40321307       0.01000000      14.40321307
  1 86 113      15.68106342       0.01000000      13.68106342
  1 86 114      14.92961924       0.01000000      12.92961924
  1 86 115      14.44981953       0.01000000      12.44981953
  1 85 115      14.05191127       0.01000000      12.05191127
  1 85 116      12.79432587       0.01000000      10.79432587
  1 85 117      12.38970227       0.01000000      10.38970227
  1 85 118      11.99116789       0.01000000       9.99116789
  1 85 119      11.58458506       0.01000000       9.58458506
  1 85 120      11.29427408       0.01000000       9.29427408
  1 86 120      11.09086307       0.01000000       9.09086307
  1 86 121      10.77349402       0.01000000       8.77349402
  1 86 122      10.38225246       0.01000000       8.38225246
  1 86 123       9.99065440       0.01000000       7.99065440
  1 86 124       9.63603819       0.01000000       7.63603819
  1 85 124       9.44109333       0.01000000       7.44109333
  1 85 125       9.21886821       0.01000000       7.21886821
  1 86 125       9.02298310       0.01000000       7.02298310
  1 86 126       8.81056395       0.01000000       6.81056395
  1 86 127       8.41406129       0.01000000       6.41406129
  1 86 128       8.02243259       0.01000000       6.02243259
  1 86 129       7.70761950       0.01000000       5.70761950
  1 85 129       7.49695455       0.01000000       5.49695455
  1 85 130       7.20828565       0.01000000       5.20828565
  1 85 131       6.80604548       0.01000000       4.80604548
  1 85 132       6.57347282       0.01000000       4.57347282
  1 86 132       6.31950009       0.01000000       4.31950009
  1 86 133       6.03199375       0.01000000       4.03199375
  1 87 133       5.79380681       0.01000000       3.79380681
  1 87 134       5.41817014       0.01000000       3.41817014
  1 87 135       5.07753565       0.01000000       3.07753565
  1 86 135       4.83005704       0.01000000       2.83005704
  1 86 136       4.58413411       0.01000000       2.58413411
  1 85 136       4.28253951       0.01000000       2.28253951
  1 85 137       3.92568927       0.01000000       1.92568927
  1 85 138       3.52399060       0.01000000       1.52399060
  1 85 139       3.29662200       0.01000000       1.29662200
  1 86 139       3.06390035       0.01000000       1.06390035
  1 86 140       2.73169759       0.01000000       0.73169759
  1 87 140       2.48402426       0.01000000       0.48402426
  1 87 141       2.13985933       0.01000000       0.13985933
  1 87 142       1.70172281       0.01000000      -0.29827719
  1 87 143       1.37227678       0.01000000      -0.62772322
  1 86 143       1.14156099       0.01000000      -0.85843901
  1 86 144       0.81083039       0.01000000      -1.18916961
  1 85 144       0.55251590       0.01000000      -1.44748410
END period  1

