BEGIN options
  DIGITS  10
  PRINT_INPUT
END options

BEGIN continuous  FILEOUT  heads.csv
  0_50_94  HEAD  1 51 95
  0_56_126  HEAD  1 57 127
  0_57_83  HEAD  1 58 84
  0_62_126  HEAD  1 63 127
  0_63_94  HEAD  1 64 95
  0_63_99  HEAD  1 64 100
  0_63_117  HEAD  1 64 118
  0_64_92  HEAD  1 65 93
  0_64_96  HEAD  1 65 97
  0_64_104  HEAD  1 65 105
  0_64_111  HEAD  1 65 112
  0_66_128  HEAD  1 67 129
  0_67_110  HEAD  1 68 111
  0_67_119  HEAD  1 68 120
  0_69_104  HEAD  1 70 105
  0_69_105  HEAD  1 70 106
  0_69_116  HEAD  1 70 117
  0_69_118  HEAD  1 70 119
  0_70_73  HEAD  1 71 74
  0_71_72  HEAD  1 72 73
  0_73_83  HEAD  1 74 84
  0_74_115  HEAD  1 75 116
  0_75_124  HEAD  1 76 125
  0_76_89  HEAD  1 77 90
  0_79_66  HEAD  1 80 67
  0_79_77  HEAD  1 80 78
  0_80_103  HEAD  1 81 104
  0_82_115  HEAD  1 83 116
  0_83_67  HEAD  1 84 68
  0_83_95  HEAD  1 84 96
  0_83_106  HEAD  1 84 107
  0_83_124  HEAD  1 84 125
  0_84_94  HEAD  1 85 95
  0_84_125  HEAD  1 85 126
  0_84_127  HEAD  1 85 128
  0_88_110  HEAD  1 89 111
  0_91_101  HEAD  1 92 102
  0_92_93  HEAD  1 93 94
  0_93_114  HEAD  1 94 115
  0_94_95  HEAD  1 95 96
  0_94_103  HEAD  1 95 104
  0_94_115  HEAD  1 95 116
  0_95_75  HEAD  1 96 76
  0_95_81  HEAD  1 96 82
  0_95_95  HEAD  1 96 96
  0_95_128  HEAD  1 96 129
  0_98_43  HEAD  1 99 44
  0_98_91  HEAD  1 99 92
  0_99_44  HEAD  1 100 45
  0_99_118  HEAD  1 100 119
  0_100_51  HEAD  1 101 52
  0_100_75  HEAD  1 101 76
  0_101_53  HEAD  1 102 54
  0_101_59  HEAD  1 102 60
  0_102_22  HEAD  1 103 23
  0_102_24  HEAD  1 103 25
  0_102_28  HEAD  1 103 29
  0_102_57  HEAD  1 103 58
  0_103_32  HEAD  1 104 33
  0_104_45  HEAD  1 105 46
  0_104_74  HEAD  1 105 75
  0_106_17  HEAD  1 107 18
  0_106_58  HEAD  1 107 59
  0_106_71  HEAD  1 107 72
  0_108_24  HEAD  1 109 25
  0_108_42  HEAD  1 109 43
  0_108_43  HEAD  1 109 44
  0_109_12  HEAD  1 110 13
  0_110_22  HEAD  1 111 23
  0_111_42  HEAD  1 112 43
  0_112_16  HEAD  1 113 17
  0_112_61  HEAD  1 113 62
  0_113_102  HEAD  1 114 103
  0_114_6  HEAD  1 115 7
  0_114_13  HEAD  1 115 14
  0_114_114  HEAD  1 115 115
  0_115_66  HEAD  1 116 67
  0_116_1  HEAD  1 117 2
  0_116_59  HEAD  1 117 60
  0_116_60  HEAD  1 117 61
  0_116_100  HEAD  1 117 101
  0_119_43  HEAD  1 120 44
  0_120_112  HEAD  1 121 113
  0_120_123  HEAD  1 121 124
  0_121_82  HEAD  1 122 83
  0_121_104  HEAD  1 122 105
  0_122_94  HEAD  1 123 95
  0_125_75  HEAD  1 126 76
  0_129_69  HEAD  1 130 70
  0_129_86  HEAD  1 130 87
  0_129_100  HEAD  1 130 101
  0_131_65  HEAD  1 132 66
  0_132_50  HEAD  1 133 51
  0_133_56  HEAD  1 134 57
  0_135_119  HEAD  1 136 120
  0_136_70  HEAD  1 137 71
  0_137_73  HEAD  1 138 74
  0_138_116  HEAD  1 139 117
  0_139_122  HEAD  1 140 123
  0_140_74  HEAD  1 141 75
  0_140_89  HEAD  1 141 90
  0_141_114  HEAD  1 142 115
  0_142_116  HEAD  1 143 117
  0_143_107  HEAD  1 144 108
  0_146_106  HEAD  1 147 107
  0_147_91  HEAD  1 148 92
  0_147_97  HEAD  1 148 98
  0_148_98  HEAD  1 149 99
  0_149_129  HEAD  1 150 130
  0_152_94  HEAD  1 153 95
  0_153_111  HEAD  1 154 112
  0_153_113  HEAD  1 154 114
  0_153_124  HEAD  1 154 125
  0_154_126  HEAD  1 155 127
  0_155_123  HEAD  1 156 124
  0_155_131  HEAD  1 156 132
  0_156_96  HEAD  1 157 97
  0_156_99  HEAD  1 157 100
  0_165_59  HEAD  1 166 60
  0_165_101  HEAD  1 166 102
  0_167_59  HEAD  1 168 60
  0_167_66  HEAD  1 168 67
END continuous  FILEOUT  heads.csv

