BEGIN options
END options

BEGIN timing
  TDIS6  test_modpath.tdis
END timing

BEGIN models
  gwf6  test_modpath.nam  test_modpath
END models

BEGIN exchanges
END exchanges

BEGIN solutiongroup  1
  ims6  test_modpath.ims  test_modpath
END solutiongroup  1

