BEGIN griddata
  strt
    CONSTANT     400.00000000
END griddata

