# Name file for MODPATH 7, generated by Flopy version 3.3.0.
MPBAS      test_modpath_mp_forward.mpbas
GRBDIS     test_modpath.dis.grb
TDIS       test_modpath.tdis
HEAD       test_modpath.hds
BUDGET     test_modpath.cbc
