ptf ~
BEGIN options
  SAVE_FLOWS
END options

BEGIN dimensions
  MAXBOUND  105
END dimensions

BEGIN period  1
  1 175 50     128.99896796   ~    c_Tech     ~  126.99896796
  1 175 51     124.91569499   ~    c_Tech     ~  122.91569499
  1 175 52     120.87088318   ~    c_Tech     ~  118.87088318
  1 174 56     103.25152201   ~    c_Tech     ~  101.25152201
  1 173 56     101.52631122   ~    c_Tech     ~   99.52631122
  1 172 56     100.36617212   ~    c_Tech     ~   98.36617212
  1 172 57      99.44982702   ~    c_Tech     ~   97.44982702
  1 171 57      97.76000226   ~    c_Tech     ~   95.76000226
  1 171 58      95.81000000   ~    c_Tech     ~   93.81000000
  1 171 59      93.49293537   ~    c_Tech     ~   91.49293537
  1 171 60      91.18996219   ~    c_Tech     ~   89.18996219
  1 171 61      88.88265061   ~    c_Tech     ~   86.88265061
  1 171 62      86.72248272   ~    c_Tech     ~   84.72248272
  1 170 62      85.57146449   ~    c_Tech     ~   83.57146449
  1 170 63      84.28000000   ~    c_Tech     ~   82.28000000
  1 170 64      82.74365543   ~    c_Tech     ~   80.74365543
  1 170 65      81.08779958   ~    c_Tech     ~   79.08779958
  1 170 66      79.91926541   ~    c_Tech     ~   77.91926541
  1 169 66      78.94784084   ~    c_Tech     ~   76.94784084
  1 169 67      77.79853732   ~    c_Tech     ~   75.79853732
  1 168 67      76.78000000   ~    c_Tech     ~   74.78000000
  1 162 76      59.17185904   ~    c_Tech     ~   57.17185904
  1 162 77      58.59208830   ~    c_Tech     ~   56.59208830
  1 161 77      57.64090110   ~    c_Tech     ~   55.64090110
  1 161 78      56.49194252   ~    c_Tech     ~   54.49194252
  1 160 80      54.13200916   ~    c_Tech     ~   52.13200916
  1 159 80      53.24351402   ~    c_Tech     ~   51.24351402
  1 159 81      52.58204975   ~    c_Tech     ~   50.58204975
  1 158 81      51.76364118   ~    c_Tech     ~   49.76364118
  1 158 82      50.91777010   ~    c_Tech     ~   48.91777010
  1 157 82      50.23351577   ~    c_Tech     ~   48.23351577
  1 157 83      49.30877487   ~    c_Tech     ~   47.30877487
  1 156 83      48.61875140   ~    c_Tech     ~   46.61875140
  1 156 84      47.82000000   ~    c_Tech     ~   45.82000000
  1 155 84      46.64002675   ~    c_Tech     ~   44.64002675
  1 155 85      45.52600437   ~    c_Tech     ~   43.52600437
  1 155 86      44.18195173   ~    c_Tech     ~   42.18195173
  1 154 86      43.17131545   ~    c_Tech     ~   41.17131545
  1 154 87      41.88935350   ~    c_Tech     ~   39.88935350
  1 155 87      40.97669307   ~    c_Tech     ~   38.97669307
  1 154 88      39.50000000   ~    c_Tech     ~   37.50000000
  1 154 89      38.82963970   ~    c_Tech     ~   36.82963970
  1 153 89      38.11084777   ~    c_Tech     ~   36.11084777
  1 152 89      37.42951370   ~    c_Tech     ~   35.42951370
  1 152 90      36.81109392   ~    c_Tech     ~   34.81109392
  1 152 91      36.01685617   ~    c_Tech     ~   34.01685617
  1 151 91      35.49455783   ~    c_Tech     ~   33.49455783
  1 151 92      34.58409900   ~    c_Tech     ~   32.58409900
  1 151 93      33.89917178   ~    c_Tech     ~   31.89917178
  1 150 93      33.42022253   ~    c_Tech     ~   31.42022253
  1 150 94      32.42823324   ~    c_Tech     ~   30.42823324
  1 149 94      31.34087199   ~    c_Tech     ~   29.34087199
  1 149 95      30.84870538   ~    c_Tech     ~   28.84870538
  1 148 94      30.74798750   ~    c_Tech     ~   28.74798750
  1 148 95      30.24756287   ~    c_Tech     ~   28.24756287
  1 147 95      29.35567749   ~    c_Tech     ~   27.35567749
  1 146 95      28.54471806   ~    c_Tech     ~   26.54471806
  1 146 96      27.70000000   ~    c_Tech     ~   25.70000000
  1 146 97      26.37093789   ~    c_Tech     ~   24.37093789
  1 146 98      25.54773192   ~    c_Tech     ~   23.54773192
  1 147 98      24.84531201   ~    c_Tech     ~   22.84531201
  1 147 99      23.69224068   ~    c_Tech     ~   21.69224068
  1 147 100      22.57292628   ~    c_Tech     ~   20.57292628
  1 146 100      21.82112598   ~    c_Tech     ~   19.82112598
  1 146 101      21.05048706   ~    c_Tech     ~   19.05048706
  1 145 101      19.88000000   ~    c_Tech     ~   17.88000000
  1 144 101      19.84093447   ~    c_Tech     ~   17.84093447
  1 144 102      19.79959194   ~    c_Tech     ~   17.79959194
  1 143 102      19.75007148   ~    c_Tech     ~   17.75007148
  1 143 103      19.70000000   ~    c_Tech     ~   17.70000000
  1 143 104      18.86640302   ~    c_Tech     ~   16.86640302
  1 142 104      18.41814992   ~    c_Tech     ~   16.41814992
  1 143 105      18.09210884   ~    c_Tech     ~   16.09210884
  1 142 105      17.65083904   ~    c_Tech     ~   15.65083904
  1 143 106      16.96566163   ~    c_Tech     ~   14.96566163
  1 143 107      16.07493482   ~    c_Tech     ~   14.07493482
  1 143 108      15.20171771   ~    c_Tech     ~   13.20171771
  1 143 109      14.45103367   ~    c_Tech     ~   12.45103367
  1 142 109      13.99867139   ~    c_Tech     ~   11.99867139
  1 142 110      13.42202720   ~    c_Tech     ~   11.42202720
  1 142 111      12.54698444   ~    c_Tech     ~   10.54698444
  1 142 112      11.66841064   ~    c_Tech     ~    9.66841064
  1 142 113      10.77605742   ~    c_Tech     ~    8.77605742
  1 142 114       9.88198628   ~    c_Tech     ~    7.88198628
  1 142 115       9.00000000   ~    c_Tech     ~    7.00000000
  1 142 116       8.46412517   ~    c_Tech     ~    6.46412517
  1 142 117       7.92090479   ~    c_Tech     ~    5.92090479
  1 142 118       7.34931809   ~    c_Tech     ~    5.34931809
  1 142 119       6.97742188   ~    c_Tech     ~    4.97742188
  1 143 119       6.67864934   ~    c_Tech     ~    4.67864934
  1 143 120       6.18787702   ~    c_Tech     ~    4.18787702
  1 143 121       5.64790970   ~    c_Tech     ~    3.64790970
  1 143 122       5.10830213   ~    c_Tech     ~    3.10830213
  1 143 123       4.56258730   ~    c_Tech     ~    2.56258730
  1 143 124       4.00351458   ~    c_Tech     ~    2.00351458
  1 143 125       3.69452822   ~    c_Tech     ~    1.69452822
  1 142 125       3.40997524   ~    c_Tech     ~    1.40997524
  1 142 126       2.86208657   ~    c_Tech     ~    0.86208657
  1 142 127       2.35897015   ~    c_Tech     ~    0.35897015
  1 141 127       2.08103178   ~    c_Tech     ~    0.08103178
  1 141 128       1.74133475   ~    c_Tech     ~   -0.25866525
  1 141 129       1.19127050   ~    c_Tech     ~   -0.80872950
  1 141 130       0.62750152   ~    c_Tech     ~   -1.37249848
  1 141 131       0.31096108   ~    c_Tech     ~   -1.68903892
  1 140 131       0.10000000   ~    c_Tech     ~   -1.90000000
END period  1

