BEGIN options
  SAVE_FLOWS
END options

BEGIN dimensions
  MAXBOUND  23
END dimensions

BEGIN period  1
  1 17 30      29.21749689
  1 17 31      28.00368123
  1 18 31      26.84520107
  1 18 32      25.32204925
  1 18 33      23.66330723
  1 18 34      22.04158365
  1 18 35      20.56257171
  1 18 36      19.08259991
  1 18 37      17.81221247
  1 19 37      16.54581559
  1 19 38      15.05739333
  1 19 39      13.69560850
  1 20 39      12.78419600
  1 20 40      11.75580514
  1 20 41      10.27974570
  1 20 42       9.07751384
  1 19 42       8.18083635
  1 19 43       6.94280666
  1 19 44       5.39511521
  1 19 45       4.43342906
  1 18 45       3.68360642
  1 18 46       2.40721148
  1 18 47       0.82642194
END period  1

