BEGIN options
  SAVE_FLOWS
END options

BEGIN dimensions
  MAXBOUND  104
END dimensions

BEGIN period  1
  1 66 117      29.83882471
  1 66 118      29.50557198
  1 66 119      29.15707051
  1 66 120      28.82262566
  1 67 120      28.58639152
  1 67 121      28.33075748
  1 68 121      27.94130575
  1 68 122      27.70758340
  1 69 122      27.45802820
  1 70 122      27.11302149
  1 70 123      26.81883809
  1 70 124      26.47068175
  1 70 125      26.10947705
  1 70 126      25.89385940
  1 69 126      25.67420010
  1 69 127      25.30343449
  1 69 128      24.95442112
  1 69 129      24.59578198
  1 69 130      24.23482036
  1 70 130      23.97229329
  1 70 131      23.69190124
  1 70 132      23.31827649
  1 70 133      22.97033692
  1 69 133      22.76590624
  1 69 134      22.55090838
  1 69 135      22.20211248
  1 69 136      22.02786408
  1 70 136      21.85761640
  1 70 137      21.51681886
  1 70 138      21.17068701
  1 70 139      20.82744204
  1 70 140      20.48719928
  1 70 141      20.14777174
  1 70 142      19.79857583
  1 70 143      19.42373050
  1 70 144      19.19622100
  1 71 144      19.01642516
  1 71 145      18.67024009
  1 71 146      18.39736151
  1 72 146      18.10927171
  1 73 146      17.68052424
  1 74 146      17.32196667
  1 74 147      16.98864769
  1 74 148      16.69218879
  1 75 148      16.51995749
  1 75 149      16.42989006
  1 74 149      16.25798449
  1 74 150      16.09976675
  1 75 150      15.92074530
  1 75 151      15.57591786
  1 75 152      15.22861102
  1 75 153      14.88652675
  1 75 154      14.55867124
  1 76 154      14.35374985
  1 76 155      14.08173558
  1 77 155      13.81415105
  1 77 156      13.54522872
  1 77 157      13.25598728
  1 78 157      13.07256713
  1 78 158      12.77504285
  1 78 159      12.41936892
  1 78 160      12.06986481
  1 78 161      11.72538199
  1 78 162      11.38269987
  1 78 163      11.04254625
  1 78 164      10.68957180
  1 78 165      10.41253682
  1 77 165      10.16045950
  1 77 166       9.80606618
  1 77 167       9.60778821
  1 76 167       9.39945675
  1 76 168       9.02312336
  1 75 168       8.82483307
  1 75 169       8.60007356
  1 75 170       8.20994561
  1 75 171       8.01557620
  1 74 171       7.82255086
  1 74 172       7.43787749
  1 74 173       7.14608122
  1 73 173       6.97110625
  1 73 174       6.72136925
  1 73 175       6.37343571
  1 73 176       6.02280557
  1 73 177       5.66841536
  1 73 178       5.45127245
  1 72 178       5.27243779
  1 72 179       4.95396840
  1 72 180       4.59577123
  1 72 181       4.28385498
  1 71 181       4.09980078
  1 71 182       3.86412483
  1 71 183       3.50289494
  1 71 184       3.15224968
  1 71 185       2.80868867
  1 71 186       2.46918068
  1 71 187       2.16162978
  1 70 187       1.97777061
  1 70 188       1.68974873
  1 69 188       1.42533994
  1 69 189       1.16699885
  1 68 189       0.87550785
  1 68 190       0.59141874
  1 68 191       0.32832108
  1 67 191       0.14685674
END period  1

