BEGIN options
END options

BEGIN packages
  DIS6  dis_test.dis  dis
  IC6  dis_test.ic  ic
  NPF6  dis_test.npf  npf
  RCH6  dis_test.rcha  rcha
  OC6  dis_test.oc  oc
  CHD6  sea.chd  chd
  CHD6  agy.chd  agy
  CHD6  Tet.chd  tet
END packages

