BEGIN options
  SAVE_FLOWS
END options

BEGIN dimensions
  MAXBOUND  49
END dimensions

BEGIN period  1
  1 33 60      29.66052224
  1 34 60      29.24165419
  1 34 61      28.74493372
  1 35 61      27.97740501
  1 35 62      27.27381089
  1 35 63      26.50450100
  1 35 64      25.73432117
  1 35 65      24.92451420
  1 35 66      24.08972549
  1 35 67      23.32285307
  1 35 68      22.58849160
  1 35 69      21.89041470
  1 35 70      21.19371117
  1 35 71      20.49389747
  1 35 72      19.90851350
  1 36 72      19.52767408
  1 36 73      18.88385431
  1 37 73      18.02598746
  1 37 74      17.36111396
  1 38 74      16.99363829
  1 38 75      16.73147350
  1 37 75      16.37526554
  1 38 76      15.86213357
  1 38 77      15.12762168
  1 38 78      14.51872476
  1 39 78      14.01883722
  1 39 79      13.37854861
  1 39 80      12.65646557
  1 39 81      11.95386296
  1 39 82      11.24773780
  1 39 83      10.43458361
  1 39 84       9.97745114
  1 38 84       9.56471034
  1 38 85       8.75823522
  1 38 86       8.36127870
  1 37 86       7.96985886
  1 37 87       7.22520395
  1 37 88       6.51510455
  1 37 89       5.93878736
  1 36 89       5.57686014
  1 36 90       5.07175601
  1 36 91       4.33417811
  1 36 92       3.60426576
  1 36 93       2.90372673
  1 36 94       2.41923910
  1 35 94       1.96422538
  1 35 95       1.40964046
  1 34 95       0.88183447
  1 34 96       0.29673512
END period  1

