BEGIN options
  SAVE_FLOWS
END options

BEGIN dimensions
  MAXBOUND  141
END dimensions

BEGIN period  1
  1 3 131       0.00000000
  1 3 132       0.00000000
  1 4 129       0.00000000
  1 4 130       0.00000000
  1 4 131       0.00000000
  1 4 132       0.00000000
  1 4 133       0.00000000
  1 4 134       0.00000000
  1 4 135       0.00000000
  1 5 128       0.00000000
  1 5 129       0.00000000
  1 5 135       0.00000000
  1 5 136       0.00000000
  1 5 137       0.00000000
  1 5 138       0.00000000
  1 6 138       0.00000000
  1 6 139       0.00000000
  1 7 139       0.00000000
  1 7 140       0.00000000
  1 8 140       0.00000000
  1 9 140       0.00000000
  1 10 140       0.00000000
  1 11 139       0.00000000
  1 11 140       0.00000000
  1 12 139       0.00000000
  1 13 139       0.00000000
  1 14 139       0.00000000
  1 15 138       0.00000000
  1 15 139       0.00000000
  1 16 138       0.00000000
  1 17 138       0.00000000
  1 18 138       0.00000000
  1 19 138       0.00000000
  1 20 138       0.00000000
  1 21 137       0.00000000
  1 21 138       0.00000000
  1 22 137       0.00000000
  1 23 137       0.00000000
  1 24 137       0.00000000
  1 25 137       0.00000000
  1 26 137       0.00000000
  1 27 136       0.00000000
  1 27 137       0.00000000
  1 28 136       0.00000000
  1 29 136       0.00000000
  1 30 136       0.00000000
  1 31 136       0.00000000
  1 32 136       0.00000000
  1 33 136       0.00000000
  1 34 136       0.00000000
  1 35 135       0.00000000
  1 35 136       0.00000000
  1 36 135       0.00000000
  1 37 135       0.00000000
  1 38 135       0.00000000
  1 39 135       0.00000000
  1 40 135       0.00000000
  1 41 135       0.00000000
  1 42 135       0.00000000
  1 43 135       0.00000000
  1 44 135       0.00000000
  1 45 135       0.00000000
  1 46 135       0.00000000
  1 47 135       0.00000000
  1 48 135       0.00000000
  1 49 135       0.00000000
  1 50 135       0.00000000
  1 51 135       0.00000000
  1 52 135       0.00000000
  1 53 135       0.00000000
  1 54 135       0.00000000
  1 55 135       0.00000000
  1 56 135       0.00000000
  1 57 135       0.00000000
  1 58 135       0.00000000
  1 59 135       0.00000000
  1 60 135       0.00000000
  1 61 135       0.00000000
  1 62 135       0.00000000
  1 63 135       0.00000000
  1 64 135       0.00000000
  1 65 135       0.00000000
  1 66 135       0.00000000
  1 67 135       0.00000000
  1 68 135       0.00000000
  1 69 135       0.00000000
  1 70 135       0.00000000
  1 71 134       0.00000000
  1 71 135       0.00000000
  1 72 134       0.00000000
  1 73 134       0.00000000
  1 74 134       0.00000000
  1 75 134       0.00000000
  1 76 134       0.00000000
  1 77 134       0.00000000
  1 78 134       0.00000000
  1 79 134       0.00000000
  1 80 134       0.00000000
  1 81 134       0.00000000
  1 82 134       0.00000000
  1 83 134       0.00000000
  1 84 134       0.00000000
  1 85 134       0.00000000
  1 86 134       0.00000000
  1 87 134       0.00000000
  1 88 134       0.00000000
  1 89 134       0.00000000
  1 89 135       0.00000000
  1 90 135       0.00000000
  1 91 135       0.00000000
  1 92 135       0.00000000
  1 93 135       0.00000000
  1 94 135       0.00000000
  1 95 135       0.00000000
  1 95 136       0.00000000
  1 96 136       0.00000000
  1 97 136       0.00000000
  1 98 136       0.00000000
  1 99 136       0.00000000
  1 100 136       0.00000000
  1 100 137       0.00000000
  1 101 137       0.00000000
  1 102 137       0.00000000
  1 103 137       0.00000000
  1 104 137       0.00000000
  1 105 137       0.00000000
  1 106 137       0.00000000
  1 107 137       0.00000000
  1 108 137       0.00000000
  1 109 137       0.00000000
  1 110 137       0.00000000
  1 111 137       0.00000000
  1 111 138       0.00000000
  1 112 138       0.00000000
  1 113 138       0.00000000
  1 114 138       0.00000000
  1 114 139       0.00000000
  1 115 139       0.00000000
  1 116 139       0.00000000
  1 116 140       0.00000000
  1 117 140       0.00000000
END period  1

