BEGIN options
  SAVE_FLOWS
END options

BEGIN dimensions
  MAXBOUND  933
END dimensions

BEGIN period  1
  1 17 193       0.00000000
  1 17 194       0.00000000
  1 17 195       0.00000000
  1 18 193       0.00000000
  1 18 194       0.00000000
  1 18 195       0.00000000
  1 18 196       0.00000000
  1 19 192       0.00000000
  1 19 193       0.00000000
  1 19 194       0.00000000
  1 19 195       0.00000000
  1 20 179       0.00000000
  1 20 180       0.00000000
  1 20 181       0.00000000
  1 20 182       0.00000000
  1 20 183       0.00000000
  1 20 184       0.00000000
  1 20 186       0.00000000
  1 20 187       0.00000000
  1 20 188       0.00000000
  1 20 190       0.00000000
  1 20 191       0.00000000
  1 20 192       0.00000000
  1 20 193       0.00000000
  1 20 194       0.00000000
  1 20 195       0.00000000
  1 21 178       0.00000000
  1 21 179       0.00000000
  1 21 180       0.00000000
  1 21 181       0.00000000
  1 21 182       0.00000000
  1 21 183       0.00000000
  1 21 184       0.00000000
  1 21 185       0.00000000
  1 21 186       0.00000000
  1 21 187       0.00000000
  1 21 188       0.00000000
  1 21 189       0.00000000
  1 21 190       0.00000000
  1 21 191       0.00000000
  1 21 192       0.00000000
  1 21 193       0.00000000
  1 21 194       0.00000000
  1 21 195       0.00000000
  1 22 178       0.00000000
  1 22 179       0.00000000
  1 22 180       0.00000000
  1 22 181       0.00000000
  1 22 182       0.00000000
  1 22 183       0.00000000
  1 22 184       0.00000000
  1 22 185       0.00000000
  1 22 186       0.00000000
  1 22 187       0.00000000
  1 22 188       0.00000000
  1 22 189       0.00000000
  1 22 190       0.00000000
  1 22 191       0.00000000
  1 22 192       0.00000000
  1 22 193       0.00000000
  1 22 194       0.00000000
  1 22 195       0.00000000
  1 23 178       0.00000000
  1 23 179       0.00000000
  1 23 180       0.00000000
  1 23 181       0.00000000
  1 23 182       0.00000000
  1 23 183       0.00000000
  1 23 184       0.00000000
  1 23 185       0.00000000
  1 23 186       0.00000000
  1 23 187       0.00000000
  1 23 188       0.00000000
  1 23 189       0.00000000
  1 23 190       0.00000000
  1 23 191       0.00000000
  1 23 192       0.00000000
  1 23 193       0.00000000
  1 23 194       0.00000000
  1 23 195       0.00000000
  1 24 177       0.00000000
  1 24 178       0.00000000
  1 24 179       0.00000000
  1 24 180       0.00000000
  1 24 181       0.00000000
  1 24 182       0.00000000
  1 24 183       0.00000000
  1 24 184       0.00000000
  1 24 185       0.00000000
  1 24 186       0.00000000
  1 24 187       0.00000000
  1 24 188       0.00000000
  1 24 189       0.00000000
  1 24 190       0.00000000
  1 24 191       0.00000000
  1 24 192       0.00000000
  1 24 193       0.00000000
  1 24 194       0.00000000
  1 24 195       0.00000000
  1 25 177       0.00000000
  1 25 178       0.00000000
  1 25 179       0.00000000
  1 25 180       0.00000000
  1 25 181       0.00000000
  1 25 182       0.00000000
  1 25 183       0.00000000
  1 25 184       0.00000000
  1 25 185       0.00000000
  1 25 186       0.00000000
  1 25 187       0.00000000
  1 25 188       0.00000000
  1 25 189       0.00000000
  1 25 190       0.00000000
  1 25 191       0.00000000
  1 25 192       0.00000000
  1 25 193       0.00000000
  1 25 194       0.00000000
  1 26 177       0.00000000
  1 26 178       0.00000000
  1 26 179       0.00000000
  1 26 180       0.00000000
  1 26 181       0.00000000
  1 26 182       0.00000000
  1 26 183       0.00000000
  1 26 184       0.00000000
  1 26 185       0.00000000
  1 26 186       0.00000000
  1 26 187       0.00000000
  1 26 188       0.00000000
  1 26 189       0.00000000
  1 26 190       0.00000000
  1 26 191       0.00000000
  1 26 192       0.00000000
  1 26 193       0.00000000
  1 26 194       0.00000000
  1 27 178       0.00000000
  1 27 179       0.00000000
  1 27 180       0.00000000
  1 27 181       0.00000000
  1 27 182       0.00000000
  1 27 183       0.00000000
  1 27 184       0.00000000
  1 27 185       0.00000000
  1 27 186       0.00000000
  1 27 187       0.00000000
  1 27 188       0.00000000
  1 27 189       0.00000000
  1 27 190       0.00000000
  1 27 191       0.00000000
  1 27 192       0.00000000
  1 27 193       0.00000000
  1 28 178       0.00000000
  1 28 179       0.00000000
  1 28 180       0.00000000
  1 28 181       0.00000000
  1 28 182       0.00000000
  1 28 183       0.00000000
  1 28 184       0.00000000
  1 28 185       0.00000000
  1 28 186       0.00000000
  1 28 187       0.00000000
  1 28 188       0.00000000
  1 28 189       0.00000000
  1 28 190       0.00000000
  1 28 191       0.00000000
  1 28 192       0.00000000
  1 29 177       0.00000000
  1 29 178       0.00000000
  1 29 179       0.00000000
  1 29 180       0.00000000
  1 29 181       0.00000000
  1 29 182       0.00000000
  1 29 183       0.00000000
  1 29 184       0.00000000
  1 29 185       0.00000000
  1 29 186       0.00000000
  1 29 187       0.00000000
  1 29 188       0.00000000
  1 29 189       0.00000000
  1 29 190       0.00000000
  1 29 191       0.00000000
  1 30 176       0.00000000
  1 30 177       0.00000000
  1 30 178       0.00000000
  1 30 179       0.00000000
  1 30 180       0.00000000
  1 30 181       0.00000000
  1 30 182       0.00000000
  1 30 183       0.00000000
  1 30 184       0.00000000
  1 30 185       0.00000000
  1 30 186       0.00000000
  1 30 187       0.00000000
  1 30 188       0.00000000
  1 30 189       0.00000000
  1 30 190       0.00000000
  1 31 176       0.00000000
  1 31 177       0.00000000
  1 31 178       0.00000000
  1 31 179       0.00000000
  1 31 180       0.00000000
  1 31 181       0.00000000
  1 31 182       0.00000000
  1 31 183       0.00000000
  1 31 184       0.00000000
  1 31 185       0.00000000
  1 31 186       0.00000000
  1 31 187       0.00000000
  1 31 188       0.00000000
  1 31 189       0.00000000
  1 31 190       0.00000000
  1 32 175       0.00000000
  1 32 176       0.00000000
  1 32 177       0.00000000
  1 32 178       0.00000000
  1 32 179       0.00000000
  1 32 180       0.00000000
  1 32 181       0.00000000
  1 32 182       0.00000000
  1 32 183       0.00000000
  1 32 184       0.00000000
  1 32 185       0.00000000
  1 32 186       0.00000000
  1 32 187       0.00000000
  1 32 188       0.00000000
  1 32 189       0.00000000
  1 33 173       0.00000000
  1 33 174       0.00000000
  1 33 175       0.00000000
  1 33 176       0.00000000
  1 33 177       0.00000000
  1 33 178       0.00000000
  1 33 179       0.00000000
  1 33 180       0.00000000
  1 33 181       0.00000000
  1 33 182       0.00000000
  1 33 183       0.00000000
  1 33 184       0.00000000
  1 33 185       0.00000000
  1 33 186       0.00000000
  1 33 187       0.00000000
  1 33 188       0.00000000
  1 34 170       0.00000000
  1 34 171       0.00000000
  1 34 172       0.00000000
  1 34 173       0.00000000
  1 34 174       0.00000000
  1 34 175       0.00000000
  1 34 176       0.00000000
  1 34 177       0.00000000
  1 34 178       0.00000000
  1 34 179       0.00000000
  1 34 180       0.00000000
  1 34 181       0.00000000
  1 34 182       0.00000000
  1 34 183       0.00000000
  1 34 184       0.00000000
  1 34 185       0.00000000
  1 34 186       0.00000000
  1 34 187       0.00000000
  1 34 188       0.00000000
  1 35 169       0.00000000
  1 35 170       0.00000000
  1 35 171       0.00000000
  1 35 172       0.00000000
  1 35 173       0.00000000
  1 35 174       0.00000000
  1 35 175       0.00000000
  1 35 176       0.00000000
  1 35 177       0.00000000
  1 35 178       0.00000000
  1 35 179       0.00000000
  1 35 180       0.00000000
  1 35 181       0.00000000
  1 35 182       0.00000000
  1 35 183       0.00000000
  1 35 184       0.00000000
  1 35 185       0.00000000
  1 35 186       0.00000000
  1 35 188       0.00000000
  1 36 168       0.00000000
  1 36 169       0.00000000
  1 36 170       0.00000000
  1 36 171       0.00000000
  1 36 172       0.00000000
  1 36 173       0.00000000
  1 36 174       0.00000000
  1 36 175       0.00000000
  1 36 176       0.00000000
  1 36 177       0.00000000
  1 36 178       0.00000000
  1 36 179       0.00000000
  1 36 180       0.00000000
  1 36 181       0.00000000
  1 36 182       0.00000000
  1 36 183       0.00000000
  1 36 184       0.00000000
  1 36 185       0.00000000
  1 36 186       0.00000000
  1 36 187       0.00000000
  1 36 188       0.00000000
  1 37 165       0.00000000
  1 37 166       0.00000000
  1 37 167       0.00000000
  1 37 168       0.00000000
  1 37 169       0.00000000
  1 37 170       0.00000000
  1 37 171       0.00000000
  1 37 172       0.00000000
  1 37 173       0.00000000
  1 37 174       0.00000000
  1 37 175       0.00000000
  1 37 176       0.00000000
  1 37 177       0.00000000
  1 37 178       0.00000000
  1 37 179       0.00000000
  1 37 180       0.00000000
  1 37 181       0.00000000
  1 37 182       0.00000000
  1 37 183       0.00000000
  1 37 184       0.00000000
  1 37 185       0.00000000
  1 37 186       0.00000000
  1 37 187       0.00000000
  1 37 188       0.00000000
  1 37 189       0.00000000
  1 37 190       0.00000000
  1 38 164       0.00000000
  1 38 165       0.00000000
  1 38 166       0.00000000
  1 38 167       0.00000000
  1 38 168       0.00000000
  1 38 169       0.00000000
  1 38 170       0.00000000
  1 38 171       0.00000000
  1 38 172       0.00000000
  1 38 173       0.00000000
  1 38 174       0.00000000
  1 38 175       0.00000000
  1 38 176       0.00000000
  1 38 177       0.00000000
  1 38 178       0.00000000
  1 38 179       0.00000000
  1 38 180       0.00000000
  1 38 181       0.00000000
  1 38 182       0.00000000
  1 38 183       0.00000000
  1 38 184       0.00000000
  1 38 185       0.00000000
  1 38 187       0.00000000
  1 38 188       0.00000000
  1 38 189       0.00000000
  1 39 163       0.00000000
  1 39 164       0.00000000
  1 39 165       0.00000000
  1 39 166       0.00000000
  1 39 167       0.00000000
  1 39 168       0.00000000
  1 39 169       0.00000000
  1 39 170       0.00000000
  1 39 171       0.00000000
  1 39 172       0.00000000
  1 39 173       0.00000000
  1 39 174       0.00000000
  1 39 175       0.00000000
  1 39 176       0.00000000
  1 39 177       0.00000000
  1 39 178       0.00000000
  1 39 179       0.00000000
  1 39 180       0.00000000
  1 39 181       0.00000000
  1 39 182       0.00000000
  1 39 183       0.00000000
  1 39 184       0.00000000
  1 39 186       0.00000000
  1 39 187       0.00000000
  1 39 188       0.00000000
  1 39 189       0.00000000
  1 39 190       0.00000000
  1 40 163       0.00000000
  1 40 164       0.00000000
  1 40 165       0.00000000
  1 40 166       0.00000000
  1 40 167       0.00000000
  1 40 168       0.00000000
  1 40 169       0.00000000
  1 40 170       0.00000000
  1 40 171       0.00000000
  1 40 172       0.00000000
  1 40 173       0.00000000
  1 40 174       0.00000000
  1 40 175       0.00000000
  1 40 176       0.00000000
  1 40 177       0.00000000
  1 40 178       0.00000000
  1 40 179       0.00000000
  1 40 180       0.00000000
  1 40 181       0.00000000
  1 40 182       0.00000000
  1 40 183       0.00000000
  1 40 184       0.00000000
  1 40 185       0.00000000
  1 40 186       0.00000000
  1 40 187       0.00000000
  1 40 188       0.00000000
  1 40 190       0.00000000
  1 40 191       0.00000000
  1 41 162       0.00000000
  1 41 163       0.00000000
  1 41 164       0.00000000
  1 41 165       0.00000000
  1 41 166       0.00000000
  1 41 167       0.00000000
  1 41 168       0.00000000
  1 41 169       0.00000000
  1 41 170       0.00000000
  1 41 171       0.00000000
  1 41 172       0.00000000
  1 41 173       0.00000000
  1 41 174       0.00000000
  1 41 175       0.00000000
  1 41 176       0.00000000
  1 41 177       0.00000000
  1 41 178       0.00000000
  1 41 179       0.00000000
  1 41 180       0.00000000
  1 41 181       0.00000000
  1 41 182       0.00000000
  1 41 183       0.00000000
  1 41 184       0.00000000
  1 41 185       0.00000000
  1 41 186       0.00000000
  1 41 187       0.00000000
  1 41 188       0.00000000
  1 41 190       0.00000000
  1 41 191       0.00000000
  1 42 162       0.00000000
  1 42 163       0.00000000
  1 42 164       0.00000000
  1 42 165       0.00000000
  1 42 166       0.00000000
  1 42 167       0.00000000
  1 42 168       0.00000000
  1 42 169       0.00000000
  1 42 170       0.00000000
  1 42 171       0.00000000
  1 42 172       0.00000000
  1 42 173       0.00000000
  1 42 174       0.00000000
  1 42 175       0.00000000
  1 42 176       0.00000000
  1 42 177       0.00000000
  1 42 178       0.00000000
  1 42 179       0.00000000
  1 42 180       0.00000000
  1 42 181       0.00000000
  1 42 182       0.00000000
  1 42 183       0.00000000
  1 42 184       0.00000000
  1 42 185       0.00000000
  1 42 186       0.00000000
  1 42 187       0.00000000
  1 42 191       0.00000000
  1 43 161       0.00000000
  1 43 162       0.00000000
  1 43 163       0.00000000
  1 43 164       0.00000000
  1 43 165       0.00000000
  1 43 166       0.00000000
  1 43 167       0.00000000
  1 43 168       0.00000000
  1 43 169       0.00000000
  1 43 170       0.00000000
  1 43 171       0.00000000
  1 43 172       0.00000000
  1 43 173       0.00000000
  1 43 174       0.00000000
  1 43 175       0.00000000
  1 43 176       0.00000000
  1 43 177       0.00000000
  1 43 178       0.00000000
  1 43 179       0.00000000
  1 43 180       0.00000000
  1 43 181       0.00000000
  1 43 182       0.00000000
  1 43 183       0.00000000
  1 43 184       0.00000000
  1 43 185       0.00000000
  1 44 161       0.00000000
  1 44 162       0.00000000
  1 44 163       0.00000000
  1 44 164       0.00000000
  1 44 165       0.00000000
  1 44 166       0.00000000
  1 44 167       0.00000000
  1 44 168       0.00000000
  1 44 169       0.00000000
  1 44 170       0.00000000
  1 44 171       0.00000000
  1 44 172       0.00000000
  1 44 173       0.00000000
  1 44 174       0.00000000
  1 44 175       0.00000000
  1 44 176       0.00000000
  1 44 177       0.00000000
  1 44 178       0.00000000
  1 44 179       0.00000000
  1 44 180       0.00000000
  1 44 181       0.00000000
  1 44 182       0.00000000
  1 44 183       0.00000000
  1 44 184       0.00000000
  1 44 185       0.00000000
  1 44 186       0.00000000
  1 44 187       0.00000000
  1 44 188       0.00000000
  1 44 190       0.00000000
  1 45 160       0.00000000
  1 45 161       0.00000000
  1 45 162       0.00000000
  1 45 165       0.00000000
  1 45 166       0.00000000
  1 45 167       0.00000000
  1 45 168       0.00000000
  1 45 169       0.00000000
  1 45 170       0.00000000
  1 45 171       0.00000000
  1 45 172       0.00000000
  1 45 173       0.00000000
  1 45 174       0.00000000
  1 45 175       0.00000000
  1 45 176       0.00000000
  1 45 177       0.00000000
  1 45 178       0.00000000
  1 45 179       0.00000000
  1 45 180       0.00000000
  1 45 181       0.00000000
  1 45 182       0.00000000
  1 45 183       0.00000000
  1 45 184       0.00000000
  1 45 185       0.00000000
  1 45 186       0.00000000
  1 45 187       0.00000000
  1 45 188       0.00000000
  1 45 189       0.00000000
  1 45 190       0.00000000
  1 46 165       0.00000000
  1 46 166       0.00000000
  1 46 167       0.00000000
  1 46 168       0.00000000
  1 46 169       0.00000000
  1 46 170       0.00000000
  1 46 171       0.00000000
  1 46 172       0.00000000
  1 46 173       0.00000000
  1 46 174       0.00000000
  1 46 175       0.00000000
  1 46 176       0.00000000
  1 46 177       0.00000000
  1 46 178       0.00000000
  1 46 179       0.00000000
  1 46 180       0.00000000
  1 46 181       0.00000000
  1 46 182       0.00000000
  1 46 183       0.00000000
  1 46 185       0.00000000
  1 46 186       0.00000000
  1 46 187       0.00000000
  1 46 188       0.00000000
  1 46 189       0.00000000
  1 46 190       0.00000000
  1 47 165       0.00000000
  1 47 166       0.00000000
  1 47 167       0.00000000
  1 47 168       0.00000000
  1 47 169       0.00000000
  1 47 170       0.00000000
  1 47 171       0.00000000
  1 47 172       0.00000000
  1 47 173       0.00000000
  1 47 174       0.00000000
  1 47 175       0.00000000
  1 47 176       0.00000000
  1 47 177       0.00000000
  1 47 178       0.00000000
  1 47 179       0.00000000
  1 47 180       0.00000000
  1 47 181       0.00000000
  1 47 182       0.00000000
  1 47 183       0.00000000
  1 47 186       0.00000000
  1 47 187       0.00000000
  1 47 188       0.00000000
  1 47 189       0.00000000
  1 48 166       0.00000000
  1 48 167       0.00000000
  1 48 168       0.00000000
  1 48 169       0.00000000
  1 48 170       0.00000000
  1 48 171       0.00000000
  1 48 172       0.00000000
  1 48 173       0.00000000
  1 48 174       0.00000000
  1 48 175       0.00000000
  1 48 176       0.00000000
  1 48 177       0.00000000
  1 48 178       0.00000000
  1 48 179       0.00000000
  1 48 180       0.00000000
  1 48 181       0.00000000
  1 48 182       0.00000000
  1 48 183       0.00000000
  1 48 184       0.00000000
  1 48 185       0.00000000
  1 48 186       0.00000000
  1 48 187       0.00000000
  1 48 188       0.00000000
  1 49 166       0.00000000
  1 49 167       0.00000000
  1 49 168       0.00000000
  1 49 169       0.00000000
  1 49 170       0.00000000
  1 49 171       0.00000000
  1 49 172       0.00000000
  1 49 173       0.00000000
  1 49 174       0.00000000
  1 49 175       0.00000000
  1 49 176       0.00000000
  1 49 177       0.00000000
  1 49 178       0.00000000
  1 49 179       0.00000000
  1 49 180       0.00000000
  1 49 181       0.00000000
  1 49 182       0.00000000
  1 49 183       0.00000000
  1 49 184       0.00000000
  1 49 185       0.00000000
  1 49 186       0.00000000
  1 49 187       0.00000000
  1 49 188       0.00000000
  1 50 166       0.00000000
  1 50 167       0.00000000
  1 50 168       0.00000000
  1 50 169       0.00000000
  1 50 170       0.00000000
  1 50 171       0.00000000
  1 50 172       0.00000000
  1 50 173       0.00000000
  1 50 174       0.00000000
  1 50 175       0.00000000
  1 50 176       0.00000000
  1 50 177       0.00000000
  1 50 178       0.00000000
  1 50 179       0.00000000
  1 50 180       0.00000000
  1 50 181       0.00000000
  1 50 182       0.00000000
  1 50 183       0.00000000
  1 50 184       0.00000000
  1 50 185       0.00000000
  1 50 186       0.00000000
  1 51 166       0.00000000
  1 51 167       0.00000000
  1 51 168       0.00000000
  1 51 169       0.00000000
  1 51 170       0.00000000
  1 51 171       0.00000000
  1 51 172       0.00000000
  1 51 173       0.00000000
  1 51 174       0.00000000
  1 51 175       0.00000000
  1 51 176       0.00000000
  1 51 177       0.00000000
  1 51 178       0.00000000
  1 51 179       0.00000000
  1 51 180       0.00000000
  1 51 181       0.00000000
  1 51 182       0.00000000
  1 51 183       0.00000000
  1 51 184       0.00000000
  1 51 185       0.00000000
  1 51 186       0.00000000
  1 51 188       0.00000000
  1 52 167       0.00000000
  1 52 168       0.00000000
  1 52 169       0.00000000
  1 52 170       0.00000000
  1 52 171       0.00000000
  1 52 172       0.00000000
  1 52 173       0.00000000
  1 52 174       0.00000000
  1 52 175       0.00000000
  1 52 176       0.00000000
  1 52 177       0.00000000
  1 52 178       0.00000000
  1 52 179       0.00000000
  1 52 180       0.00000000
  1 52 181       0.00000000
  1 52 182       0.00000000
  1 52 183       0.00000000
  1 52 184       0.00000000
  1 52 185       0.00000000
  1 52 187       0.00000000
  1 53 167       0.00000000
  1 53 168       0.00000000
  1 53 169       0.00000000
  1 53 170       0.00000000
  1 53 171       0.00000000
  1 53 172       0.00000000
  1 53 173       0.00000000
  1 53 174       0.00000000
  1 53 175       0.00000000
  1 53 176       0.00000000
  1 53 177       0.00000000
  1 53 178       0.00000000
  1 53 179       0.00000000
  1 53 180       0.00000000
  1 53 181       0.00000000
  1 53 182       0.00000000
  1 53 183       0.00000000
  1 53 184       0.00000000
  1 53 185       0.00000000
  1 54 168       0.00000000
  1 54 169       0.00000000
  1 54 170       0.00000000
  1 54 171       0.00000000
  1 54 172       0.00000000
  1 54 173       0.00000000
  1 54 174       0.00000000
  1 54 175       0.00000000
  1 54 176       0.00000000
  1 54 177       0.00000000
  1 54 178       0.00000000
  1 54 179       0.00000000
  1 54 180       0.00000000
  1 54 181       0.00000000
  1 54 182       0.00000000
  1 54 183       0.00000000
  1 54 184       0.00000000
  1 54 185       0.00000000
  1 54 186       0.00000000
  1 54 187       0.00000000
  1 54 188       0.00000000
  1 55 168       0.00000000
  1 55 169       0.00000000
  1 55 170       0.00000000
  1 55 171       0.00000000
  1 55 172       0.00000000
  1 55 173       0.00000000
  1 55 174       0.00000000
  1 55 175       0.00000000
  1 55 176       0.00000000
  1 55 177       0.00000000
  1 55 178       0.00000000
  1 55 179       0.00000000
  1 55 180       0.00000000
  1 55 181       0.00000000
  1 55 182       0.00000000
  1 55 183       0.00000000
  1 55 184       0.00000000
  1 55 185       0.00000000
  1 55 186       0.00000000
  1 55 187       0.00000000
  1 55 188       0.00000000
  1 56 169       0.00000000
  1 56 170       0.00000000
  1 56 171       0.00000000
  1 56 172       0.00000000
  1 56 173       0.00000000
  1 56 174       0.00000000
  1 56 175       0.00000000
  1 56 176       0.00000000
  1 56 177       0.00000000
  1 56 178       0.00000000
  1 56 179       0.00000000
  1 56 180       0.00000000
  1 56 181       0.00000000
  1 56 182       0.00000000
  1 56 183       0.00000000
  1 56 184       0.00000000
  1 56 185       0.00000000
  1 56 186       0.00000000
  1 56 187       0.00000000
  1 56 188       0.00000000
  1 56 189       0.00000000
  1 57 169       0.00000000
  1 57 170       0.00000000
  1 57 171       0.00000000
  1 57 172       0.00000000
  1 57 173       0.00000000
  1 57 174       0.00000000
  1 57 175       0.00000000
  1 57 176       0.00000000
  1 57 177       0.00000000
  1 57 178       0.00000000
  1 57 179       0.00000000
  1 57 180       0.00000000
  1 57 181       0.00000000
  1 57 182       0.00000000
  1 57 183       0.00000000
  1 57 184       0.00000000
  1 57 185       0.00000000
  1 57 186       0.00000000
  1 57 187       0.00000000
  1 57 188       0.00000000
  1 57 190       0.00000000
  1 58 171       0.00000000
  1 58 172       0.00000000
  1 58 173       0.00000000
  1 58 174       0.00000000
  1 58 175       0.00000000
  1 58 176       0.00000000
  1 58 177       0.00000000
  1 58 178       0.00000000
  1 58 186       0.00000000
  1 58 187       0.00000000
  1 58 188       0.00000000
  1 59 174       0.00000000
  1 59 175       0.00000000
  1 59 187       0.00000000
  1 59 190       0.00000000
  1 59 191       0.00000000
  1 105 186       0.00000000
  1 106 180       0.00000000
  1 106 181       0.00000000
  1 106 182       0.00000000
  1 106 183       0.00000000
  1 106 184       0.00000000
  1 106 185       0.00000000
  1 106 186       0.00000000
  1 106 187       0.00000000
  1 107 179       0.00000000
  1 107 180       0.00000000
  1 107 181       0.00000000
  1 107 182       0.00000000
  1 107 183       0.00000000
  1 107 184       0.00000000
  1 107 185       0.00000000
  1 107 186       0.00000000
  1 107 187       0.00000000
  1 107 188       0.00000000
  1 108 178       0.00000000
  1 108 179       0.00000000
  1 108 180       0.00000000
  1 108 181       0.00000000
  1 108 182       0.00000000
  1 108 183       0.00000000
  1 108 184       0.00000000
  1 108 185       0.00000000
  1 108 186       0.00000000
  1 108 187       0.00000000
  1 108 188       0.00000000
  1 109 178       0.00000000
  1 109 179       0.00000000
  1 109 180       0.00000000
  1 109 181       0.00000000
  1 109 182       0.00000000
  1 109 183       0.00000000
  1 109 184       0.00000000
  1 109 185       0.00000000
  1 109 186       0.00000000
  1 109 187       0.00000000
  1 109 188       0.00000000
  1 110 178       0.00000000
  1 110 179       0.00000000
  1 110 180       0.00000000
  1 110 181       0.00000000
  1 110 184       0.00000000
  1 110 185       0.00000000
  1 110 186       0.00000000
  1 110 187       0.00000000
  1 110 188       0.00000000
  1 111 179       0.00000000
  1 111 180       0.00000000
  1 111 185       0.00000000
  1 111 186       0.00000000
  1 111 187       0.00000000
  1 111 188       0.00000000
  1 111 189       0.00000000
  1 112 183       0.00000000
  1 112 184       0.00000000
  1 112 185       0.00000000
  1 112 186       0.00000000
  1 112 187       0.00000000
  1 112 188       0.00000000
  1 112 189       0.00000000
  1 113 184       0.00000000
  1 113 185       0.00000000
  1 113 186       0.00000000
  1 113 187       0.00000000
  1 113 188       0.00000000
  1 113 189       0.00000000
  1 114 184       0.00000000
  1 114 185       0.00000000
  1 114 186       0.00000000
  1 114 187       0.00000000
  1 114 188       0.00000000
  1 114 189       0.00000000
  1 115 184       0.00000000
  1 115 185       0.00000000
  1 115 186       0.00000000
  1 115 187       0.00000000
  1 115 188       0.00000000
  1 115 189       0.00000000
  1 116 183       0.00000000
  1 116 184       0.00000000
  1 116 185       0.00000000
  1 116 186       0.00000000
  1 116 187       0.00000000
  1 116 188       0.00000000
  1 116 189       0.00000000
  1 117 184       0.00000000
  1 117 185       0.00000000
  1 117 186       0.00000000
  1 117 187       0.00000000
  1 117 188       0.00000000
  1 118 184       0.00000000
  1 118 185       0.00000000
  1 118 186       0.00000000
  1 118 187       0.00000000
  1 118 188       0.00000000
  1 118 189       0.00000000
  1 119 185       0.00000000
  1 119 186       0.00000000
  1 119 187       0.00000000
  1 119 188       0.00000000
  1 119 189       0.00000000
  1 120 186       0.00000000
  1 120 187       0.00000000
  1 120 188       0.00000000
  1 120 189       0.00000000
  1 121 186       0.00000000
  1 121 187       0.00000000
END period  1

