BEGIN options
  BUDGET  FILEOUT  first_2D.cbc
  HEAD  FILEOUT  first_2D.hds
END options

BEGIN period  1
  SAVE  HEAD  LAST
  SAVE  BUDGET  LAST
  PRINT  HEAD  LAST
  PRINT  BUDGET  LAST
END period  1

