BEGIN options
  XORIGIN  6.60022500E+05
  YORIGIN  6.14997750E+06
END options

BEGIN dimensions
  NLAY  1
  NROW  50
  NCOL  50
END dimensions

BEGIN griddata
  delr
    INTERNAL  FACTOR  1.0
       900.00000000     900.00000000     900.00000000     900.00000000     900.00000000     900.00000000     900.00000000     900.00000000     900.00000000     900.00000000     900.00000000     900.00000000     900.00000000     900.00000000     900.00000000     900.00000000     900.00000000     900.00000000     900.00000000     900.00000000
       900.00000000     900.00000000     900.00000000     900.00000000     900.00000000     900.00000000     900.00000000     900.00000000     900.00000000     900.00000000     900.00000000     900.00000000     900.00000000     900.00000000     900.00000000     900.00000000     900.00000000     900.00000000     900.00000000     900.00000000
       900.00000000     900.00000000     900.00000000     900.00000000     900.00000000     900.00000000     900.00000000     900.00000000     900.00000000     900.00000000
  delc
    INTERNAL  FACTOR  1.0
      1100.00000000    1100.00000000    1100.00000000    1100.00000000    1100.00000000    1100.00000000    1100.00000000    1100.00000000    1100.00000000    1100.00000000    1100.00000000    1100.00000000    1100.00000000    1100.00000000    1100.00000000    1100.00000000    1100.00000000    1100.00000000    1100.00000000    1100.00000000
      1100.00000000    1100.00000000    1100.00000000    1100.00000000    1100.00000000    1100.00000000    1100.00000000    1100.00000000    1100.00000000    1100.00000000    1100.00000000    1100.00000000    1100.00000000    1100.00000000    1100.00000000    1100.00000000    1100.00000000    1100.00000000    1100.00000000    1100.00000000
      1100.00000000    1100.00000000    1100.00000000    1100.00000000    1100.00000000    1100.00000000    1100.00000000    1100.00000000    1100.00000000    1100.00000000
  top
    INTERNAL  FACTOR  1.0
         0.00000000       0.00000000       0.00000000       0.00000000       0.00000000       0.00000000       0.00000000       0.00000000       0.00000000       0.00000000       0.00000000       0.00000000       0.00000000       0.00000000       0.00000000       0.00000000       0.00000000       0.00000000       0.00000000       0.00000000
         0.00000000       0.00000000       0.00000000       0.00000000       0.00000000       0.00000000       0.00000000       0.00000000       0.00000000       0.00000000       0.00000000       0.00000000       0.00000000       0.00000000       0.00000000       0.00000000       0.00000000       0.00000000       0.00000000       0.00000000
         0.00000000       0.00000000       0.00000000       0.00000000       6.88000011       2.06999993      -0.50000000       0.41000000       0.00000000       0.00000000
         0.00000000       0.00000000       0.00000000       0.00000000       0.00000000       0.00000000       0.00000000       0.00000000       0.00000000       0.00000000       0.00000000       0.00000000       0.00000000       0.00000000       0.00000000       0.00000000       0.00000000       0.00000000       0.00000000       0.00000000
         0.00000000       0.00000000       0.00000000       0.00000000       0.00000000       0.00000000       0.00000000       0.00000000       0.00000000       0.00000000       0.00000000       0.00000000       0.00000000       0.00000000       0.00000000       0.00000000       0.00000000       0.00000000       0.00000000       0.00000000
         0.00000000       0.00000000       0.00000000       0.00000000       4.82000017      11.18999958      38.97000122      53.79000092       0.00000000       0.00000000
         0.00000000       0.00000000       0.00000000       0.00000000       0.00000000       0.00000000       0.00000000       0.00000000       0.00000000       0.00000000       0.00000000       0.00000000       0.00000000       0.00000000       0.00000000       0.00000000       0.00000000       0.00000000       0.00000000       0.00000000
         0.00000000       0.00000000       0.00000000       0.00000000       0.00000000       0.00000000       0.00000000       0.00000000       0.00000000       0.00000000       0.00000000       0.00000000       0.00000000       0.00000000       0.00000000       0.00000000       0.00000000       0.00000000       0.00000000       0.00000000
         0.00000000       0.00000000       0.00000000       0.00000000       4.57000017       0.07000000      48.95000076      42.18000031      44.40000153      38.06000137
         0.00000000       0.00000000       0.00000000       0.00000000       0.00000000       0.00000000       0.00000000       0.00000000       0.00000000       0.00000000       0.00000000       0.00000000       0.00000000       0.00000000       0.00000000       0.00000000       0.00000000       0.00000000       0.00000000       0.00000000
         0.00000000       0.00000000       0.00000000       0.00000000       0.00000000       0.00000000       0.00000000       0.00000000       0.00000000       0.00000000       0.00000000       0.00000000       0.00000000       0.00000000       0.00000000       0.00000000       0.00000000       0.00000000       0.00000000       0.00000000
         0.00000000       0.00000000       0.00000000       0.00000000       6.05000019       0.07000000      41.04000092      13.39000034      18.55999947      48.34000015
         0.00000000       0.00000000       0.00000000       0.00000000       0.00000000       0.00000000       0.00000000       0.00000000       0.00000000       0.00000000       0.00000000       0.00000000       0.00000000       0.00000000       0.00000000       0.00000000       0.00000000       0.00000000       0.00000000       0.00000000
         0.00000000       0.00000000       0.00000000       0.00000000       0.00000000       0.00000000       0.00000000       0.00000000       0.00000000       0.00000000       0.00000000       0.00000000       0.00000000       0.00000000       0.00000000       0.00000000       0.00000000       0.00000000       0.00000000       0.00000000
         0.00000000       0.00000000       0.00000000       0.00000000       2.75000000      -0.05000000      19.11000061      20.79000092       0.07000000       0.00000000
         0.00000000       0.00000000       0.00000000       0.00000000       0.00000000       0.00000000       0.00000000       0.00000000       0.00000000       0.00000000       0.00000000       0.00000000       0.00000000       0.00000000       0.00000000       0.00000000       0.00000000       0.00000000       0.00000000       0.00000000
         0.00000000       0.00000000       0.00000000       0.00000000       0.00000000       0.00000000       0.00000000       0.00000000       0.00000000       0.00000000       0.00000000       0.00000000       0.00000000     407.83999634     365.98999023     218.44999695     278.86999512     213.71000671     205.50000000     128.38000488
       149.66999817      86.91000366      73.30000305       8.80000019       0.07000000       0.07000000       0.07000000       0.07000000       0.07000000       0.00000000
         0.00000000       0.00000000       0.00000000       0.00000000       0.00000000       0.00000000       0.00000000       0.00000000       0.00000000       0.00000000       0.00000000       0.00000000       0.00000000       0.00000000       0.00000000       0.00000000       0.00000000       0.00000000       0.00000000       0.00000000
         0.00000000       0.00000000       0.00000000       0.00000000       0.00000000       0.00000000       0.00000000       0.00000000       0.00000000       0.00000000       0.00000000       0.00000000       0.00000000     213.55999756     176.08999634     177.82000732     218.38999939     208.66000366     170.08000183     186.27999878
       167.75999451     110.94999695      59.79000092      10.72999954       0.07000000       0.07000000       0.07000000       0.07000000       2.72000003       0.00000000
         0.00000000       0.00000000       0.00000000       0.00000000       0.00000000       0.00000000       0.00000000       0.00000000       0.00000000       0.00000000       0.00000000       0.00000000       0.00000000       0.00000000       0.00000000       0.00000000       0.00000000       0.00000000       0.00000000       0.00000000
         0.00000000       0.00000000       0.00000000       0.00000000       0.00000000       0.00000000       0.00000000       0.00000000       0.00000000       0.00000000       0.00000000       0.00000000       0.00000000     154.55999756     155.47999573     179.05999756     179.00999451     168.80999756     175.16000366     194.22000122
       133.38000488     137.00000000      91.25000000       0.30000001       0.07000000       0.07000000       0.07000000       1.75000000       1.16999996       0.00000000
         0.00000000       0.00000000       0.00000000       0.00000000       0.00000000       0.00000000       0.00000000       0.00000000       0.00000000       0.00000000       0.00000000       0.00000000       0.00000000       0.00000000       0.00000000       0.00000000       0.00000000       0.00000000       0.00000000       0.00000000
         0.00000000       0.00000000       0.00000000       0.00000000       0.00000000       0.00000000       0.00000000       0.00000000       0.00000000       0.00000000       0.00000000       0.00000000       0.00000000     167.80999756     166.91999817     165.63000488     166.11000061     143.97999573     125.68000031      92.41000366
        31.04999924       7.76000023       0.07000000       0.07000000       0.07000000       0.07000000       0.07000000       0.07000000       2.35999990       0.00000000
         0.00000000       0.00000000       0.00000000       0.00000000       0.00000000       0.00000000       0.00000000       0.00000000       0.00000000       0.00000000       0.00000000       0.00000000       0.00000000       0.00000000       0.00000000       0.00000000       0.00000000       0.00000000       0.00000000       0.00000000
         0.00000000       0.00000000       0.00000000       0.00000000       0.00000000       0.00000000       0.00000000       0.00000000     271.55999756     217.36999512     208.55999756     165.86000061     159.82000732     179.67999268     173.00000000     108.79000092      48.15999985      21.45000076       5.80000019       4.57000017
         0.34000000       0.07000000       0.07000000       0.07000000       0.07000000       0.07000000       0.07000000       1.73000002       1.65999997       0.00000000
         0.00000000       0.00000000       0.00000000       0.00000000       0.00000000       0.00000000       0.00000000       0.00000000       0.00000000       0.00000000       0.00000000       0.00000000       0.00000000       0.00000000       0.00000000       0.00000000       0.00000000       0.00000000       0.00000000       0.00000000
         0.00000000       0.00000000       0.00000000       0.00000000       0.00000000       0.00000000       0.00000000       0.00000000     258.91000366     194.94000244     169.97000122     119.81999969     114.81999969     142.02000427      94.41000366      87.26000214      39.58000183       4.96000004       0.46000001       0.14000000
         0.07000000       0.07000000       0.07000000       0.07000000       0.07000000       0.07000000       0.28000000       1.25000000       0.00000000       0.00000000
         0.00000000       0.00000000       0.00000000       0.00000000       0.00000000       0.00000000       0.00000000       0.00000000       0.00000000       0.00000000       0.00000000       0.00000000       0.00000000       0.00000000       0.00000000       0.00000000       0.00000000       0.00000000       0.00000000       0.00000000
         0.00000000       0.00000000       0.00000000       0.00000000       0.00000000       0.00000000       0.00000000       0.00000000     134.07000732     141.46000671     102.52999878      87.05999756     101.83999634      64.72000122      73.38999939      34.77000046      15.77999973       4.13000011       3.74000001       0.75999999
         0.11000000       0.07000000       0.07000000       0.07000000       0.07000000       0.07000000       0.07000000       1.37000000       0.00000000       0.00000000
         0.00000000       0.00000000       0.00000000       0.00000000       0.00000000       0.00000000       0.00000000       0.00000000       0.00000000       0.00000000       0.00000000       0.00000000       0.00000000       0.00000000       0.00000000       0.00000000       0.00000000       0.00000000       0.00000000       0.00000000
         0.00000000       0.00000000       0.00000000       0.00000000       0.00000000       0.00000000       0.00000000       0.00000000     142.83999634     128.41999817      76.70999908      72.08000183      64.87000275      45.36000061      38.22000122      25.97999954      15.34000015       8.31000042       4.75000000       2.50000000
         0.66000003       0.07000000       0.07000000       0.07000000       0.07000000       0.07000000       1.41999996       1.09000003       0.00000000       0.00000000
         0.00000000       0.00000000       0.00000000       0.00000000       0.00000000       0.00000000       0.00000000       0.00000000       0.00000000       0.00000000       0.00000000       0.00000000       0.00000000       0.00000000       0.00000000       0.00000000       0.00000000       0.00000000       0.00000000       0.00000000
         0.00000000       0.00000000       0.00000000       0.00000000       0.00000000       0.00000000       0.00000000       0.00000000     109.12999725      75.44999695      56.63999939      57.11999893      51.36000061      41.61999893      31.37999916      23.02000046      14.38000011       8.43999958       7.59000015       5.65000010
         1.60000002       0.41000000       0.07000000       0.07000000       0.07000000       0.07000000       0.07000000       1.25999999       0.00000000       0.00000000
         0.00000000       0.00000000       0.00000000       0.00000000       0.00000000       0.00000000       0.00000000       0.00000000       0.00000000       0.00000000       0.00000000       0.00000000       0.00000000       0.00000000       0.00000000       0.00000000       0.00000000       0.00000000       0.00000000       0.00000000
         0.00000000       0.00000000       0.00000000       0.00000000       0.00000000       0.00000000       0.00000000       0.00000000      70.01999664      55.77999878      46.54000092      44.70999908      41.56000137      35.68000031      25.94000053      19.20000076      13.84000015      12.26000023       8.47000027       5.71000004
         3.10999990       1.33000004       1.00999999       0.07000000       0.51999998       0.20999999       1.63000000       0.34000000       0.00000000       0.00000000
         0.00000000       0.00000000       0.00000000       0.00000000       0.00000000       0.00000000       0.00000000       0.00000000       0.00000000       0.00000000       0.00000000       0.00000000       0.00000000       0.00000000       0.00000000       0.00000000       0.00000000       0.00000000       0.00000000       0.00000000
         0.00000000       0.00000000       0.00000000       0.00000000       0.00000000       0.00000000       0.00000000       0.00000000      66.83999634      46.18000031      37.22000122      35.40000153      32.41999817      26.95999908      21.54000092      16.42000008      16.13999939      12.47999954       9.64000034       8.77000046
         2.81999993       2.58999991       2.14000010       2.40000010       0.99000001       0.81000000       1.23000002       2.09999990       0.00000000       0.00000000
         0.00000000       0.00000000       0.00000000       0.00000000       0.00000000       0.00000000       0.00000000       0.00000000       0.00000000       0.00000000       0.00000000       0.00000000       0.00000000       0.00000000       0.00000000       0.00000000       0.00000000       0.00000000       0.00000000       0.00000000
         0.00000000       0.00000000       0.00000000       0.00000000       0.00000000       0.00000000       0.00000000       0.00000000      28.68000031      29.81999969      30.15999985      26.78000069      25.71999931      18.89999962      21.62000084      20.65999985      17.95999908      14.34000015      11.84000015       8.50000000
         6.13000011       4.21000004       3.79999995       2.76999998       2.18000007       1.77999997       1.79999995       1.58000004       0.00000000       0.00000000
         0.00000000       0.00000000       0.00000000       0.00000000       0.00000000       0.00000000       0.00000000       0.00000000       0.00000000       0.00000000       0.00000000       0.00000000       0.00000000       0.00000000       0.00000000       0.00000000       0.00000000       0.00000000       0.00000000       0.00000000
         0.00000000       0.00000000       0.00000000       0.00000000       0.00000000       0.00000000       0.00000000       0.00000000      52.11999893      35.74000168      28.36000061      26.29999924      20.19000053      21.68000031      21.52000046      18.52000046      17.34000015      15.01000023      11.43000031       8.31999969
         6.53000021       5.38000011       6.25000000       4.46000004       3.20000005       3.15000010       2.54999995       1.50999999       0.00000000       0.00000000
         0.00000000       0.00000000       0.00000000       0.00000000       0.00000000       0.00000000       0.00000000       0.00000000       0.00000000       0.00000000       0.00000000       0.00000000       0.00000000       0.00000000       0.00000000       0.00000000       0.00000000     170.63999939     187.32000732     317.23999023
       297.11999512     238.50999451     251.89999390     226.41000366     187.75000000     191.49000549     160.25999451     107.97000122      63.93999863      59.11999893      53.75000000      30.64999962      26.97999954      20.00000000      14.15999985      13.93999958      14.52000046      13.43000031      11.27000046       9.43000031
         8.89000034       7.76000023       3.71000004       5.40000010       3.54999995       2.43000007       1.84000003       2.23000002       0.00000000       0.00000000
         0.00000000       0.00000000       0.00000000       0.00000000       0.00000000       0.00000000       0.00000000       0.00000000       0.00000000       0.00000000       0.00000000       0.00000000       0.00000000       0.00000000       0.00000000       0.00000000       0.00000000     198.72000122     139.61000061     199.46000671
       250.57000732     238.99000549     214.19999695     169.05999756     163.99000549     129.13000488     100.20999908      70.15000153      73.12000275      59.22000122      42.41999817      49.59999847      38.84000015      32.59999847      22.95000076      13.60000038      11.60000038      11.60999966      10.84000015      12.88000011
        10.52000046       8.35000038       6.42000008       4.65000010       3.35999990       2.50000000       2.00000000       0.11000000       0.00000000       0.00000000
         0.00000000       0.00000000       0.00000000       0.00000000       0.00000000       0.00000000       0.00000000       0.00000000       0.00000000       0.00000000       0.00000000       0.00000000       0.00000000       0.00000000       0.00000000       0.00000000       0.00000000     209.64999390     222.44999695     220.55000305
       245.41000366     200.32000732     183.17999268     144.05999756     121.68000031     120.01000214     104.84999847      92.20999908      88.08000183      83.63999939      67.65000153      48.08000183      41.84000015      35.13999939      26.68000031      25.37000084      22.84000015      17.56999969      12.46000004      11.09000015
         9.85000038       7.78000021       6.44000006       5.32000017       3.72000003       2.48000002       2.15000010       1.75000000       0.00000000       0.00000000
         0.00000000       0.00000000       0.00000000       0.00000000       0.00000000       0.00000000       0.00000000       0.00000000       0.00000000       0.00000000       0.00000000       0.00000000       0.00000000       0.00000000       0.00000000       0.00000000       0.00000000     309.61999512     300.54000854     216.02000427
       160.25000000     179.30000305     175.52999878     162.69999695     118.12000275     109.16000366     102.91999817      96.80000305      78.04000092      64.58000183      56.63999939      49.00000000      46.47999954      35.95999908      31.02000046      26.47999954      19.90999985      16.96999931      15.10999966      12.72999954
        10.97000027       9.27000046       8.18999958       6.76000023       5.09000015       3.80999994       2.98000002       2.10999990       0.00000000       0.00000000
         0.00000000       0.00000000       0.00000000       0.00000000       0.00000000       0.00000000       0.00000000       0.00000000       0.00000000       0.00000000       0.00000000       0.00000000       0.00000000       0.00000000       0.00000000       0.00000000       0.00000000     216.22000122     188.17999268     195.66999817
       121.51999664     130.50000000     111.91000366     115.44999695     110.05999756     108.77999878      82.19999695      77.73999786      69.83999634      62.27999878      55.50000000      51.52000046      44.15000153      34.13999939      29.36000061      22.60000038      18.38999939      17.70000076      16.81999969      14.52000046
        13.72000027      11.10000038       9.81000042       7.90000010       5.84000015       4.40000010       2.75999999       1.85000002       0.00000000       0.00000000
         0.00000000       0.00000000       0.00000000       0.00000000       0.00000000       0.00000000     343.86999512     341.50000000     332.51998901     344.64001465     316.23999023     335.01998901     262.98001099     217.41999817     147.86999512     160.71000671     185.50999451     145.96000671     154.67999268     143.11999512
       122.13999939      97.36000061     124.23999786      77.15000153      91.09999847      70.80999756      78.31999969      75.19999695      61.43999863      59.16999817      47.24000168      37.90000153      32.06000137      28.92000008      26.52000046      24.50000000      22.30999947      20.70999908      18.75000000      15.97000027
        15.76000023      12.93000031      11.43000031       9.05000019       7.98000002       5.88000011       4.65000010       2.27999997       0.00000000       0.00000000
         0.00000000       0.00000000       0.00000000       0.00000000       0.00000000       0.00000000     369.26000977     385.01998901     324.22000122     255.17999268     299.66000366     217.72000122     162.39999390     126.94000244     106.81999969     103.19999695     105.94000244     104.48000336      95.34999847      91.93000031
        86.48000336      85.54000092      74.68000031      70.83999634      66.05999756      60.40000153      56.43999863      52.36000061      47.68000031      43.04000092      38.58000183      35.95999908      32.24000168      31.13999939      30.46999931      26.15999985      22.29000092      21.78000069      32.68000031      42.95000076
        32.36000061      32.59000015      11.97999954       9.43999958      14.51000023      14.02000046       2.96000004       1.64999998       0.00000000       0.00000000
         0.00000000       0.00000000       0.00000000       0.00000000       0.00000000       0.00000000     397.60998535     371.29998779     307.14999390     278.95001221     188.71000671     119.04000092     118.94999695     115.94000244     111.59999847     106.26000214     101.00000000      93.22000122      85.30000305      81.50000000
        78.12000275      75.12000275      69.41999817      65.41999817      62.75999832      59.50000000      54.43999863      49.20000076      46.29999924      43.27999878      46.95999908      45.56000137      39.97999954      37.93999863      36.95999908      47.47999954      39.54000092      37.86000061      36.13999939      39.22999954
        27.29000092      29.20000076      20.55999947      23.87000084       4.01000023       1.71000004       0.44000000       1.75000000       0.00000000       0.00000000
         0.00000000       0.00000000       0.00000000       0.00000000       0.00000000       0.00000000     343.98999023     304.89999390     224.86999512     155.80000305     130.24000549     131.74000549     126.27999878     120.51000214     114.80000305     109.26000214     102.83999634     100.05000305      96.40000153      87.05000305
        81.91000366      77.80999756      64.83999634      84.90000153      68.37999725      71.01999664      68.48000336      62.54000092      58.13999939      53.15999985      47.93999863      40.18999863      41.45999908      38.68000031      54.40999985      55.00000000      38.24000168      36.93999863      38.45000076      42.75000000
        32.93999863      28.51000023      14.10000038       3.42000008       0.38000000       0.40000001       0.40000001       3.65000010       0.00000000       0.00000000
       526.72998047     425.25000000     488.16000366     457.45999146     423.97000122     247.75000000     293.64001465     260.76000977     144.39999390     139.82000732     142.08999634     135.36000061     130.33999634     124.80000305     135.41999817     129.60000610     123.48999786     117.27999878     110.22000122     103.76000214
        98.50000000      91.81999969      86.44000244      82.08000183      75.37999725      70.33999634      66.54000092      60.36000061      58.00000000      53.74000168      52.77999878      48.90000153      53.70000076      90.93000031      45.24000168      40.84999847      53.88999939      30.36000061      25.46999931      24.10000038
        19.81999969      11.26000023       2.88000011       2.46000004       0.40000001       0.62000000       0.40000001       1.82000005       0.00000000       0.00000000
       463.91000366     415.14001465     443.73001099     355.48999023     197.53999329     180.27999878     163.47999573     149.66000366     166.66000366     153.55999756     152.46000671     144.46000671     150.66000366     146.89999390     145.74000549     141.97999573     133.63000488     123.83999634     119.73999786     110.62000275
       102.51999664      97.05999756      89.61000061      88.30000305      81.37999725      75.41999817      71.09999847      70.00000000      64.48000336      60.33000183      58.04000092      53.91999817      57.84000015      50.09999847      54.11999893      44.38999939      37.43999863      27.92000008      23.87999916      18.45999908
        16.87999916       7.44000006       5.96000004       3.73000002       2.88000011       0.40000001       0.40000001       3.25999999       0.00000000       0.00000000
       242.13999939     242.94000244     245.22000122     222.88999939     211.67999268     201.94999695     187.80000305     173.88000488     175.16000366     207.67999268     216.96000671     194.36000061     225.96000671     198.71000671     164.00000000     245.47999573     145.32000732     141.02000427     128.96000671     117.05999756
       106.63999939      99.73999786      95.01999664      89.83999634      85.59999847      79.98000336      79.13999939      75.94000244      68.72000122      65.33000183      59.91999817      66.66000366      65.68000031      56.88000107      50.25000000      36.93999863      25.03000069      24.39999962      20.05999947      18.28000069
        16.88999939       9.88000011       7.57000017       5.01000023       1.96000004       0.50999999       0.40000001       2.21000004       0.00000000       0.00000000
       259.35000610     274.48999023     295.41000366     240.66000366     287.64001465     269.54998779     272.61999512     293.64001465     346.95001221     310.14999390     232.14999390     389.29000854     397.63000488     285.73999023     282.04000854     224.69000244     171.58000183     157.82000732     137.41999817     118.90000153
       103.16999817      97.58000183      97.50000000      92.51999664      87.27999878      87.31999969      82.31999969      91.44000244      73.80000305      80.31999969      61.41999817      62.56000137      53.31999969      38.31999969      34.20000076      37.08000183      24.14999962      29.95999908      18.15999985      16.95999908
        14.26000023      11.50000000       8.31000042       4.88000011       2.24000001       0.98000002       1.25000000       1.75000000       0.00000000       0.00000000
       306.27999878     299.57000732     311.89999390     286.80999756     372.95999146     466.72000122     311.92999268     473.66000366     591.29998779     352.32998657     286.51000977     496.57000732     394.16000366     399.10000610     368.57000732     295.76000977     236.89999390     261.73999023     269.01000977     179.80000305
       141.30000305     108.83000183     103.16000366      95.12000275      94.86000061      94.48000336     101.23999786      81.02999878      92.50000000      81.73999786      68.50000000      56.24000168      55.84000015      59.56000137      30.34000015      19.29999924      18.87999916      12.42000008      12.38000011      12.35999966
         9.10000038       8.39999962       6.53000021       5.21000004       3.00000000       1.86000001       1.60000002       2.43000007       0.00000000       0.00000000
         0.00000000       0.00000000       0.00000000       0.00000000       0.00000000       0.00000000       0.00000000       0.00000000       0.00000000       0.00000000       0.00000000       0.00000000       0.00000000       0.00000000       0.00000000       0.00000000       0.00000000     264.48999023     328.05999756     273.50000000