BEGIN options
  SAVE_FLOWS
END options

BEGIN dimensions
  MAXBOUND  119
END dimensions

BEGIN period  1
  1 108 72      99.63765711
  1 108 73      99.07740556
  1 109 73      98.31865230
  1 109 74      97.31858919
  1 108 74      96.48977171
  1 108 75      95.93673666
  1 109 75      95.12245478
  1 109 76      93.96795393
  1 109 77      93.11493885
  1 110 77      92.59093922
  1 110 78      91.91825918
  1 110 79      91.37253308
  1 109 79      90.73397740
  1 109 80      89.62060786
  1 109 81      88.58614696
  1 109 82      87.57424640
  1 109 83      86.84949321
  1 108 83      86.24597852
  1 108 84      85.31239387
  1 108 85      84.41962782
  1 107 85      83.72448718
  1 107 86      82.78833333
  1 106 86      82.15770917
  1 106 87      81.48677063
  1 106 88      80.34649679
  1 106 89      79.45682949
  1 105 89      78.88767986
  1 106 90      78.11067706
  1 106 91      77.02062759
  1 106 92      75.93420848
  1 105 92      74.72771943
  1 104 92      73.77712060
  1 104 93      73.13194829
  1 103 93      72.40961932
  1 103 94      71.82476454
  1 104 94      71.29968445
  1 104 95      70.72701315
  1 103 95      69.85702618
  1 102 95      68.41405875
  1 102 96      67.42289898
  1 101 95      66.63904614
  1 101 96      66.01177200
  1 100 96      65.14246662
  1 99 96      64.27644539
  1 99 97      63.43280916
  1 98 97      62.46093906
  1 98 98      61.66536659
  1 97 98      60.90330573
  1 97 99      60.24473143
  1 96 99      59.23150941
  1 96 100      58.56374265
  1 95 100      58.35248366
  1 95 99      57.71429350
  1 94 100      56.38596859
  1 93 100      55.45881823
  1 93 101      54.64059828
  1 93 102      53.91438200
  1 92 102      53.25365146
  1 92 103      52.38163805
  1 91 103      51.79075236
  1 91 104      51.05729401
  1 91 105      50.07765166
  1 91 106      48.98194587
  1 91 107      48.00560283
  1 90 107      47.34962529
  1 90 108      46.43885406
  1 90 109      45.79998594
  1 89 109      45.24158198
  1 89 110      44.18764241
  1 89 111      43.19553959
  1 89 112      42.22161192
  1 89 113      41.24616753
  1 89 114      40.26791507
  1 89 115      39.26850902
  1 89 116      38.23458517
  1 89 117      37.26869856
  1 90 117      36.72306600
  1 90 118      36.01737687
  1 90 119      34.90080499
  1 90 120      34.31798394
  1 91 120      33.78212195
  1 91 121      32.80223965
  1 91 122      31.94810019
  1 90 122      30.99173661
  1 89 122      30.23587852
  1 89 123      29.50100916
  1 89 124      28.63728736
  1 88 124      27.97309183
  1 88 125      27.03001611
  1 88 126      25.99458401
  1 88 127      25.01668540
  1 88 128      23.93991681
  1 88 129      22.86658066
  1 88 130      21.88411220
  1 88 131      20.84331923
  1 88 132      19.74671711
  1 87 132      19.18028777
  1 87 133      18.42213668
  1 87 134      17.64366111
  1 86 134      16.87636096
  1 86 135      16.10884638
  1 85 135      15.35729190
  1 85 136      14.57923679
  1 84 136      13.82768230
  1 84 137      13.04381891
  1 83 137      12.28960938
  1 83 138      11.51186140
  1 82 138      10.76487041
  1 82 139       9.51737364
  1 81 139       8.66489052
  1 82 140       8.21189781
  1 83 140       7.37708642
  1 84 140       6.16688957
  1 85 140       4.97607578
  1 86 140       3.78518614
  1 87 140       2.64576018
  1 87 141       1.76299835
  1 88 141       1.19772627
  1 88 142       0.48600847
END period  1

