BEGIN options
  SAVE_FLOWS
END options

BEGIN dimensions
  MAXBOUND  143
END dimensions

BEGIN period  1
  1 144 96      99.59831897
  1 144 97      98.97724313
  1 145 97      98.27596545
  1 145 98      97.37212668
  1 145 99      96.48945133
  1 144 99      95.41565603
  1 145 100      94.33699680
  1 145 101      93.48144102
  1 146 101      93.06479572
  1 146 102      92.61801631
  1 146 103      91.75594183
  1 146 104      90.90135986
  1 146 105      90.24990061
  1 145 105      89.67958420
  1 145 106      88.92425838
  1 145 107      88.06166961
  1 145 108      87.20119130
  1 145 109      86.36126045
  1 145 110      85.55782368
  1 144 110      85.03796109
  1 144 111      84.48329500
  1 144 112      83.58296724
  1 144 113      82.96585309
  1 143 113      82.36929212
  1 143 114      81.61566166
  1 142 114      81.09901263
  1 142 115      80.36264050
  1 142 116      79.77144053
  1 141 116      79.24215051
  1 141 117      78.36408231
  1 141 118      77.71002254
  1 140 118      77.25998928
  1 141 119      76.52788346
  1 141 120      75.70069033
  1 142 120      75.23924202
  1 142 121      74.67096969
  1 142 122      73.98189266
  1 141 122      73.20175572
  1 140 122      72.52011745
  1 140 123      71.99524329
  1 139 123      71.11211119
  1 138 123      70.25402804
  1 138 124      69.44895716
  1 138 125      68.53254209
  1 138 126      67.58208432
  1 138 127      66.99943657
  1 137 127      66.40337038
  1 136 127      65.44478255
  1 136 126      64.52300609
  1 135 127      63.51808012
  1 134 127      62.46012093
  1 133 127      61.64745574
  1 133 128      60.89513895
  1 132 128      60.39808054
  1 132 129      59.74287596
  1 132 130      58.99900101
  1 131 130      58.30213834
  1 130 130      57.59269410
  1 130 131      56.95456028
  1 129 131      56.15206501
  1 129 132      55.59502188
  1 128 132      54.80543585
  1 128 133      54.23284518
  1 127 133      54.00890748
  1 127 132      53.49600551
  1 126 132      52.80274703
  1 126 133      52.20579907
  1 125 133      51.41626482
  1 124 133      50.86329289
  1 124 134      50.28522348
  1 124 135      49.51038415
  1 123 135      49.00395872
  1 123 136      48.24221924
  1 122 136      47.68719978
  1 122 137      47.07300803
  1 122 138      46.14856718
  1 122 139      45.33705905
  1 122 140      44.52046586
  1 122 141      43.77071252
  1 121 141      43.28905184
  1 121 142      42.61313637
  1 121 143      42.01245631
  1 120 143      41.46858181
  1 120 144      40.70734628
  1 119 144      40.17502482
  1 119 145      39.45729909
  1 119 146      38.75044797
  1 118 146      38.31492989
  1 118 147      37.70777383
  1 118 148      36.89376396
  1 118 149      36.08347229
  1 118 150      35.27372964
  1 118 151      34.46204386
  1 118 152      33.64723824
  1 118 153      32.81986984
  1 118 154      31.96568943
  1 118 155      31.51153112
  1 119 155      31.06402497
  1 119 156      30.18710628
  1 119 157      29.54187200
  1 120 157      29.03044408
  1 120 158      28.27686858
  1 120 159      27.47548752
  1 121 159      27.03916032
  1 121 160      26.52013724
  1 121 161      25.65178552
  1 121 162      24.77406370
  1 121 163      24.24949428
  1 120 163      23.67796658
  1 119 163      22.66026477
  1 119 164      22.00222482
  1 118 164      21.52471206
  1 118 165      20.69249474
  1 118 166      20.13929346
  1 117 166      19.56460408
  1 117 167      18.63752418
  1 117 168      17.82548632
  1 117 169      17.01734449
  1 117 170      16.12554287
  1 117 171      15.20128852
  1 117 172      14.35765200
  1 117 173      13.89986712
  1 118 173      13.48819906
  1 118 174      12.76980923
  1 117 174      12.33383254
  1 117 175      11.79754633
  1 117 176      10.88217309
  1 116 176      10.40601169
  1 116 177       9.78718695
  1 116 178       9.13379369
  1 115 178       8.48658242
  1 115 179       7.85205447
  1 114 179       7.21874010
  1 114 180       6.57719777
  1 113 180       5.95233694
  1 113 181       5.30544283
  1 112 181       4.68058199
  1 112 182       4.03368788
  1 111 182       3.40335430
  1 111 183       2.75227045
  1 110 183       2.13120381
  1 117 189       1.21968632
  1 117 190       0.40780571
END period  1

