BEGIN options
  SAVE_FLOWS
END options

BEGIN dimensions
  MAXBOUND  152
END dimensions

BEGIN period  1
  1 4 138       0.00000000
  1 4 139       0.00000000
  1 4 140       0.00000000
  1 4 141       0.00000000
  1 4 142       0.00000000
  1 4 143       0.00000000
  1 4 144       0.00000000
  1 5 137       0.00000000
  1 5 138       0.00000000
  1 5 144       0.00000000
  1 5 145       0.00000000
  1 5 146       0.00000000
  1 5 147       0.00000000
  1 6 147       0.00000000
  1 6 148       0.00000000
  1 6 149       0.00000000
  1 7 149       0.00000000
  1 8 149       0.00000000
  1 8 150       0.00000000
  1 9 150       0.00000000
  1 10 150       0.00000000
  1 11 149       0.00000000
  1 11 150       0.00000000
  1 12 149       0.00000000
  1 13 149       0.00000000
  1 14 149       0.00000000
  1 15 148       0.00000000
  1 15 149       0.00000000
  1 16 148       0.00000000
  1 17 148       0.00000000
  1 18 148       0.00000000
  1 19 148       0.00000000
  1 20 148       0.00000000
  1 21 148       0.00000000
  1 22 147       0.00000000
  1 22 148       0.00000000
  1 23 147       0.00000000
  1 24 147       0.00000000
  1 25 147       0.00000000
  1 26 147       0.00000000
  1 27 146       0.00000000
  1 27 147       0.00000000
  1 28 146       0.00000000
  1 29 146       0.00000000
  1 30 146       0.00000000
  1 31 146       0.00000000
  1 32 146       0.00000000
  1 33 145       0.00000000
  1 33 146       0.00000000
  1 34 145       0.00000000
  1 35 145       0.00000000
  1 36 145       0.00000000
  1 37 145       0.00000000
  1 38 145       0.00000000
  1 39 145       0.00000000
  1 40 145       0.00000000
  1 41 145       0.00000000
  1 42 145       0.00000000
  1 43 145       0.00000000
  1 44 145       0.00000000
  1 45 145       0.00000000
  1 46 145       0.00000000
  1 47 145       0.00000000
  1 48 145       0.00000000
  1 49 145       0.00000000
  1 50 145       0.00000000
  1 51 144       0.00000000
  1 51 145       0.00000000
  1 52 144       0.00000000
  1 53 144       0.00000000
  1 54 144       0.00000000
  1 55 144       0.00000000
  1 56 144       0.00000000
  1 57 144       0.00000000
  1 58 144       0.00000000
  1 59 144       0.00000000
  1 60 144       0.00000000
  1 61 144       0.00000000
  1 62 144       0.00000000
  1 63 144       0.00000000
  1 64 144       0.00000000
  1 65 144       0.00000000
  1 65 145       0.00000000
  1 66 145       0.00000000
  1 67 145       0.00000000
  1 68 145       0.00000000
  1 69 145       0.00000000
  1 70 145       0.00000000
  1 71 145       0.00000000
  1 72 144       0.00000000
  1 72 145       0.00000000
  1 73 144       0.00000000
  1 74 144       0.00000000
  1 75 144       0.00000000
  1 76 144       0.00000000
  1 77 144       0.00000000
  1 78 144       0.00000000
  1 79 144       0.00000000
  1 80 144       0.00000000
  1 81 143       0.00000000
  1 81 144       0.00000000
  1 82 143       0.00000000
  1 83 143       0.00000000
  1 84 143       0.00000000
  1 85 143       0.00000000
  1 86 143       0.00000000
  1 87 143       0.00000000
  1 88 143       0.00000000
  1 89 143       0.00000000
  1 89 144       0.00000000
  1 90 144       0.00000000
  1 91 144       0.00000000
  1 92 144       0.00000000
  1 93 144       0.00000000
  1 94 144       0.00000000
  1 95 144       0.00000000
  1 96 144       0.00000000
  1 97 144       0.00000000
  1 98 144       0.00000000
  1 99 144       0.00000000
  1 99 145       0.00000000
  1 100 145       0.00000000
  1 101 145       0.00000000
  1 102 145       0.00000000
  1 103 145       0.00000000
  1 103 146       0.00000000
  1 104 146       0.00000000
  1 105 146       0.00000000
  1 106 146       0.00000000
  1 107 146       0.00000000
  1 108 146       0.00000000
  1 109 146       0.00000000
  1 109 147       0.00000000
  1 110 147       0.00000000
  1 111 147       0.00000000
  1 112 147       0.00000000
  1 113 147       0.00000000
  1 114 147       0.00000000
  1 115 147       0.00000000
  1 116 147       0.00000000
  1 117 147       0.00000000
  1 118 147       0.00000000
  1 119 147       0.00000000
  1 120 147       0.00000000
  1 120 148       0.00000000
  1 121 148       0.00000000
  1 122 148       0.00000000
  1 123 148       0.00000000
  1 123 149       0.00000000
  1 124 149       0.00000000
  1 124 150       0.00000000
  1 125 150       0.00000000
END period  1

