BEGIN options
  SAVE_FLOWS
END options

BEGIN dimensions
  MAXBOUND  188
END dimensions

BEGIN period  1
  1 6 193       0.00000000
  1 7 193       0.00000000
  1 7 194       0.00000000
  1 7 195       0.00000000
  1 7 196       0.00000000
  1 8 196       0.00000000
  1 8 197       0.00000000
  1 8 198       0.00000000
  1 9 198       0.00000000
  1 9 199       0.00000000
  1 10 199       0.00000000
  1 10 200       0.00000000
  1 11 200       0.00000000
  1 12 200       0.00000000
  1 13 200       0.00000000
  1 14 199       0.00000000
  1 14 200       0.00000000
  1 15 199       0.00000000
  1 16 199       0.00000000
  1 17 198       0.00000000
  1 17 199       0.00000000
  1 18 198       0.00000000
  1 19 198       0.00000000
  1 20 198       0.00000000
  1 21 198       0.00000000
  1 22 197       0.00000000
  1 22 198       0.00000000
  1 23 197       0.00000000
  1 24 197       0.00000000
  1 25 197       0.00000000
  1 26 197       0.00000000
  1 27 197       0.00000000
  1 28 197       0.00000000
  1 29 196       0.00000000
  1 29 197       0.00000000
  1 30 196       0.00000000
  1 31 196       0.00000000
  1 32 196       0.00000000
  1 33 196       0.00000000
  1 34 195       0.00000000
  1 34 196       0.00000000
  1 35 195       0.00000000
  1 36 195       0.00000000
  1 37 195       0.00000000
  1 38 195       0.00000000
  1 39 195       0.00000000
  1 40 194       0.00000000
  1 40 195       0.00000000
  1 41 194       0.00000000
  1 42 194       0.00000000
  1 43 194       0.00000000
  1 44 194       0.00000000
  1 45 194       0.00000000
  1 46 194       0.00000000
  1 47 194       0.00000000
  1 48 193       0.00000000
  1 48 194       0.00000000
  1 49 193       0.00000000
  1 50 193       0.00000000
  1 51 193       0.00000000
  1 52 193       0.00000000
  1 53 193       0.00000000
  1 54 193       0.00000000
  1 55 193       0.00000000
  1 56 193       0.00000000
  1 57 193       0.00000000
  1 58 193       0.00000000
  1 59 193       0.00000000
  1 60 193       0.00000000
  1 61 193       0.00000000
  1 62 193       0.00000000
  1 63 193       0.00000000
  1 64 193       0.00000000
  1 65 193       0.00000000
  1 66 193       0.00000000
  1 67 192       0.00000000
  1 67 193       0.00000000
  1 68 192       0.00000000
  1 69 192       0.00000000
  1 70 192       0.00000000
  1 71 192       0.00000000
  1 72 192       0.00000000
  1 73 192       0.00000000
  1 74 192       0.00000000
  1 75 192       0.00000000
  1 76 192       0.00000000
  1 77 192       0.00000000
  1 78 192       0.00000000
  1 79 192       0.00000000
  1 80 192       0.00000000
  1 81 192       0.00000000
  1 82 192       0.00000000
  1 83 192       0.00000000
  1 84 192       0.00000000
  1 85 192       0.00000000
  1 86 192       0.00000000
  1 86 193       0.00000000
  1 87 193       0.00000000
  1 88 193       0.00000000
  1 89 193       0.00000000
  1 90 193       0.00000000
  1 91 193       0.00000000
  1 92 193       0.00000000
  1 93 193       0.00000000
  1 94 193       0.00000000
  1 95 192       0.00000000
  1 95 193       0.00000000
  1 96 192       0.00000000
  1 97 192       0.00000000
  1 98 192       0.00000000
  1 99 192       0.00000000
  1 100 192       0.00000000
  1 101 192       0.00000000
  1 102 192       0.00000000
  1 103 192       0.00000000
  1 104 192       0.00000000
  1 105 191       0.00000000
  1 105 192       0.00000000
  1 106 191       0.00000000
  1 107 191       0.00000000
  1 108 191       0.00000000
  1 109 191       0.00000000
  1 110 191       0.00000000
  1 111 191       0.00000000
  1 112 191       0.00000000
  1 113 191       0.00000000
  1 114 191       0.00000000
  1 115 191       0.00000000
  1 116 191       0.00000000
  1 117 191       0.00000000
  1 118 191       0.00000000
  1 119 191       0.00000000
  1 120 191       0.00000000
  1 121 191       0.00000000
  1 122 191       0.00000000
  1 123 191       0.00000000
  1 123 192       0.00000000
  1 124 192       0.00000000
  1 125 192       0.00000000
  1 126 192       0.00000000
  1 127 192       0.00000000
  1 128 192       0.00000000
  1 129 192       0.00000000
  1 130 192       0.00000000
  1 131 192       0.00000000
  1 131 193       0.00000000
  1 132 193       0.00000000
  1 133 193       0.00000000
  1 134 193       0.00000000
  1 135 193       0.00000000
  1 136 193       0.00000000
  1 136 194       0.00000000
  1 137 194       0.00000000
  1 138 194       0.00000000
  1 139 194       0.00000000
  1 140 194       0.00000000
  1 141 194       0.00000000
  1 141 195       0.00000000
  1 142 195       0.00000000
  1 143 195       0.00000000
  1 144 195       0.00000000
  1 145 195       0.00000000
  1 146 195       0.00000000
  1 147 195       0.00000000
  1 148 195       0.00000000
  1 149 195       0.00000000
  1 150 195       0.00000000
  1 151 195       0.00000000
  1 152 195       0.00000000
  1 153 195       0.00000000
  1 154 195       0.00000000
  1 154 196       0.00000000
  1 155 196       0.00000000
  1 156 196       0.00000000
  1 157 196       0.00000000
  1 158 196       0.00000000
  1 159 196       0.00000000
  1 160 196       0.00000000
  1 160 197       0.00000000
  1 161 197       0.00000000
  1 162 197       0.00000000
  1 163 197       0.00000000
  1 163 198       0.00000000
  1 164 198       0.00000000
  1 164 199       0.00000000
  1 165 199       0.00000000
  1 165 200       0.00000000
  1 166 200       0.00000000
END period  1

