BEGIN options
  SAVE_FLOWS
END options

BEGIN dimensions
  MAXBOUND  51
END dimensions

BEGIN period  1
  1 2 46       0.00000000
  1 2 47       0.00000000
  1 2 48       0.00000000
  1 2 49       0.00000000
  1 2 50       0.00000000
  1 3 50       0.00000000
  1 4 50       0.00000000
  1 5 50       0.00000000
  1 6 50       0.00000000
  1 7 50       0.00000000
  1 8 49       0.00000000
  1 8 50       0.00000000
  1 9 49       0.00000000
  1 10 49       0.00000000
  1 11 49       0.00000000
  1 12 49       0.00000000
  1 13 49       0.00000000
  1 14 49       0.00000000
  1 15 49       0.00000000
  1 16 49       0.00000000
  1 17 48       0.00000000
  1 17 49       0.00000000
  1 18 48       0.00000000
  1 19 48       0.00000000
  1 20 48       0.00000000
  1 21 48       0.00000000
  1 22 48       0.00000000
  1 22 49       0.00000000
  1 23 49       0.00000000
  1 24 48       0.00000000
  1 24 49       0.00000000
  1 25 48       0.00000000
  1 26 48       0.00000000
  1 27 48       0.00000000
  1 28 48       0.00000000
  1 29 48       0.00000000
  1 30 48       0.00000000
  1 31 48       0.00000000
  1 32 48       0.00000000
  1 33 48       0.00000000
  1 33 49       0.00000000
  1 34 49       0.00000000
  1 35 49       0.00000000
  1 36 49       0.00000000
  1 37 49       0.00000000
  1 38 49       0.00000000
  1 39 49       0.00000000
  1 40 49       0.00000000
  1 40 50       0.00000000
  1 41 50       0.00000000
  1 42 50       0.00000000
END period  1

