BEGIN options
  SAVE_FLOWS
END options

BEGIN dimensions
  MAXBOUND  51
END dimensions

BEGIN period  1
  1 29 6     158.98541947
  1 29 7     156.23507543
  1 29 8     152.27063256
  1 28 8     149.34547437
  1 28 9     146.51624495
  1 28 10     142.64392710
  1 28 11     140.72305744
  1 27 11     137.90827532
  1 26 11     135.04872495
  1 26 12     132.46259992
  1 26 13     128.37764084
  1 26 14     125.28532876
  1 25 14     123.39359444
  1 25 15     120.62767095
  1 25 16     116.57374849
  1 25 17     113.07710597
  1 26 17     111.20076242
  1 26 18     109.13852682
  1 26 19     105.42907045
  1 26 20     101.66636132
  1 26 21      99.01962735
  1 27 21      97.10853145
  1 27 22      94.16867581
  1 27 23      90.58256649
  1 27 24      86.92903536
  1 27 25      83.17138619
  1 27 26      79.46069635
  1 27 27      76.53211298
  1 26 27      74.74905407
  1 26 28      72.35090845
  1 26 29      68.77782016
  1 26 30      64.91447263
  1 26 31      61.58279915
  1 25 31      59.71317961
  1 25 32      57.37716272
  1 25 33      53.90152897
  1 25 34      50.36708954
  1 25 35      46.78056460
  1 25 36      43.76171655
  1 24 36      41.85764015
  1 24 37      39.37277794
  1 24 38      35.75701951
  1 24 39      32.12543835
  1 24 40      28.50117564
  1 24 41      24.96372922
  1 24 42      21.48045995
  1 24 43      17.95757959
  1 24 44      14.24414496
  1 24 45      10.29000704
  1 24 46       6.19692665
  1 24 47       2.06085897
END period  1

