BEGIN options
  SAVE_FLOWS
END options

BEGIN dimensions
  MAXBOUND  169
END dimensions

BEGIN period  1
  1 86 17     149.71091092
  1 86 18     148.78399324
  1 86 19     147.60537159
  1 86 20     146.54087051
  1 86 21     145.49587533
  1 86 22     144.45372287
  1 86 23     143.41195740
  1 86 24     142.56603668
  1 85 24     141.57168750
  1 84 24     140.26605791
  1 84 25     139.55281874
  1 83 25     138.91018758
  1 83 26     137.92415292
  1 82 26     137.17218566
  1 82 27     136.28668413
  1 82 28     135.21126501
  1 82 29     134.15678092
  1 82 30     133.08906070
  1 82 31     132.38864413
  1 81 31     131.78550691
  1 81 32     130.86953112
  1 80 32     129.68966845
  1 79 32     128.80731105
  1 79 33     128.01873458
  1 78 33     127.20459128
  1 78 34     126.31329173
  1 78 35     125.54465283
  1 77 35     124.80588835
  1 77 36     123.85731262
  1 76 36     123.12470073
  1 76 37     122.15781663
  1 76 38     121.10704715
  1 76 39     120.05913974
  1 76 40     118.99650440
  1 76 41     117.87345415
  1 76 42     117.16173208
  1 75 42     116.55649963
  1 75 43     115.52926425
  1 75 44     114.41890764
  1 74 44     113.76518304
  1 74 45     112.82762388
  1 74 46     111.76480585
  1 75 46     111.20373351
  1 75 47     110.31681445
  1 75 48     109.22215136
  1 75 49     108.10564376
  1 75 50     106.97547604
  1 75 51     106.00121953
  1 76 51     105.41716552
  1 76 52     104.66156171
  1 76 53     103.51752040
  1 76 54     102.38907206
  1 76 55     101.28174963
  1 76 56     100.69447546
  1 77 56     100.13099722
  1 77 57      99.03794028
  1 77 58      97.85860920
  1 77 59      96.72073443
  1 77 60      95.91167547
  1 78 60      95.29228177
  1 78 61      94.28851770
  1 79 61      93.60748049
  1 79 62      93.05012042
  1 79 63      91.98518626
  1 79 64      90.92536919
  1 79 65      89.85396572
  1 79 66      88.78529971
  1 79 67      87.70274454
  1 79 68      86.58315734
  1 79 69      85.46085744
  1 79 70      84.38090268
  1 79 71      83.30276864
  1 79 72      82.65776817
  1 80 72      82.07365451
  1 80 73      81.04798829
  1 80 74      80.04603994
  1 79 74      79.40723910
  1 79 75      78.63845834
  1 79 76      77.49748055
  1 79 77      76.40327860
  1 79 78      75.32533610
  1 79 79      74.26337127
  1 79 80      73.20717225
  1 78 80      72.66624277
  1 78 81      72.09344461
  1 78 82      70.99883130
  1 78 83      69.92623587
  1 78 84      68.85146210
  1 78 85      67.77893729
  1 78 86      66.99185751
  1 77 86      66.45905705
  1 77 87      65.98981958
  1 78 87      65.40337771
  1 77 88      64.31400141
  1 76 88      63.48195398
  1 76 89      62.82210716
  1 76 90      61.77083426
  1 76 91      60.69115875
  1 76 92      59.54536050
  1 76 93      58.94054750
  1 75 93      58.37826704
  1 75 94      57.29558843
  1 75 95      56.23683831
  1 75 96      55.18533901
  1 75 97      54.13503279
  1 75 98      53.07801003
  1 75 99      52.01173799
  1 75 100      51.25572362
  1 74 100      50.72563668
  1 74 101      49.85815132
  1 74 102      48.74792798
  1 74 103      47.66648295
  1 74 104      46.59586584
  1 74 105      46.03589484
  1 73 105      45.47018399
  1 73 106      44.36092968
  1 73 107      43.23924728
  1 72 107      42.67941342
  1 72 108      42.06153744
  1 72 109      40.88510875
  1 72 110      39.87869027
  1 71 110      39.34198028
  1 71 111      38.69611220
  1 71 112      37.57974102
  1 71 113      36.46103115
  1 71 114      35.63140441
  1 70 114      35.09905497
  1 70 115      34.26494316
  1 70 116      33.13451324
  1 70 117      32.04376092
  1 70 118      30.96942340
  1 70 119      29.87338953
  1 70 120      28.76704162
  1 70 121      28.08864222
  1 71 121      27.55685428
  1 71 122      26.63223625
  1 71 123      25.85636739
  1 70 123      25.32361844
  1 70 124      24.51833122
  1 70 125      23.46476264
  1 70 126      22.57428708
  1 71 126      22.03297854
  1 71 127      21.32654194
  1 71 128      20.27082023
  1 71 129      19.69454935
  1 70 129      19.12665543
  1 70 130      18.07610721
  1 70 131      16.99177993
  1 70 132      16.16300158
  1 71 132      15.47836195
  1 71 133      14.43246822
  1 72 133      13.79038268
  1 72 134      13.33020572
  1 71 134      12.79590315
  1 71 135      12.04901933
  1 71 136      11.13406347
  1 70 136      10.32104859
  1 70 137       9.22714315
  1 70 138       8.14425370
  1 70 139       7.29799869
  1 71 139       6.66942072
  1 71 140       5.66160201
  1 71 141       4.97595349
  1 72 141       4.39305640
  1 72 142       3.36241680
  1 71 142       2.76661112
  1 71 143       2.00821328
  1 71 144       0.98943171
  1 70 144       0.29765696
END period  1

