BEGIN options
  SAVE_FLOWS
END options

BEGIN dimensions
  MAXBOUND  169
END dimensions

BEGIN period  1
  1 86 17     159.69163831
  1 86 18     158.70292613
  1 86 19     157.44572970
  1 86 20     156.31026188
  1 86 21     155.19560035
  1 86 22     154.08397106
  1 86 23     152.97275456
  1 86 24     152.07043912
  1 85 24     151.00980000
  1 84 24     149.61712844
  1 84 25     148.85633999
  1 83 25     148.17086675
  1 83 26     147.11909645
  1 82 26     146.31699804
  1 82 27     145.37246307
  1 82 28     144.22534934
  1 82 29     143.10056632
  1 82 30     141.96166475
  1 82 31     141.21455373
  1 81 31     140.57120737
  1 81 32     139.59416653
  1 80 32     138.33564635
  1 79 32     137.39446511
  1 79 33     136.55331688
  1 78 33     135.68489736
  1 78 34     134.73417784
  1 78 35     133.91429635
  1 77 35     133.12628091
  1 77 36     132.11446680
  1 76 36     131.33301411
  1 76 37     130.30167107
  1 76 38     129.18085030
  1 76 39     128.06308239
  1 76 40     126.92960469
  1 76 41     125.73168443
  1 76 42     124.97251422
  1 75 42     124.32693294
  1 75 43     123.23121520
  1 75 44     122.04683482
  1 74 44     121.34952857
  1 74 45     120.34946548
  1 74 46     119.21579291
  1 75 46     118.61731575
  1 75 47     117.67126874
  1 75 48     116.50362812
  1 75 49     115.31268668
  1 75 50     114.10717444
  1 75 51     113.06796750
  1 76 51     112.44497655
  1 76 52     111.63899915
  1 76 53     110.41868843
  1 76 54     109.21501020
  1 76 55     108.03386627
  1 76 56     107.40744050
  1 77 56     106.80639703
  1 77 57     105.64046964
  1 77 58     104.38251648
  1 77 59     103.16878339
  1 77 60     102.30578717
  1 78 60     101.64510055
  1 78 61     100.57441888
  1 79 61      99.84797919
  1 79 62      99.25346179
  1 79 63      98.11753201
  1 79 64      96.98706047
  1 79 65      95.84423010
  1 79 66      94.70431970
  1 79 67      93.54959418
  1 79 68      92.35536783
  1 79 69      91.15824794
  1 79 70      90.00629619
  1 79 71      88.85628655
  1 79 72      88.16828605
  1 80 72      87.54523147
  1 80 73      86.45118750
  1 80 74      85.38244260
  1 79 74      84.70105504
  1 79 75      83.88102223
  1 79 76      82.66397925
  1 79 77      81.49683050
  1 79 78      80.34702517
  1 79 79      79.21426269
  1 79 80      78.08765040
  1 78 80      77.51065895
  1 78 81      76.89967426
  1 78 82      75.73208672
  1 78 83      74.58798493
  1 78 84      73.44155957
  1 78 85      72.29753311
  1 78 86      71.45798135
  1 77 86      70.88966086
  1 77 87      70.38914089
  1 78 87      69.76360289
  1 77 88      68.60160151
  1 76 88      67.71408425
  1 76 89      67.01024763
  1 76 90      65.88888988
  1 76 91      64.73723600
  1 76 92      63.51505120
  1 76 93      62.86991733
  1 75 93      62.27015150
  1 75 94      61.11529433
  1 75 95      59.98596086
  1 75 96      58.86436161
  1 75 97      57.74403498
  1 75 98      56.61654403
  1 75 99      55.47918719
  1 75 100      54.67277186
  1 74 100      54.10734580
  1 74 101      53.18202807
  1 74 102      51.99778984
  1 74 103      50.84424848
  1 74 104      49.70225690
  1 74 105      49.10495450
  1 73 105      48.50152959
  1 73 106      47.31832500
  1 73 107      46.12186376
  1 72 107      45.52470765
  1 72 108      44.86563994
  1 72 109      43.61078267
  1 72 110      42.53726963
  1 71 110      41.96477896
  1 71 111      41.27585301
  1 71 112      40.08505709
  1 71 113      38.89176656
  1 71 114      38.00683137
  1 70 114      37.43899197
  1 70 115      36.54927270
  1 70 116      35.34348079
  1 70 117      34.18001165
  1 70 118      33.03405162
  1 70 119      31.86494883
  1 70 120      30.68484439
  1 70 121      29.96121837
  1 71 121      29.39397790
  1 71 122      28.40771867
  1 71 123      27.58012522
  1 70 123      27.01185966
  1 70 124      26.15288663
  1 70 125      25.02908015
  1 70 126      24.07923955
  1 71 126      23.50184378
  1 71 127      22.74831140
  1 71 128      21.62220825
  1 71 129      21.00751931
  1 70 129      20.40176579
  1 70 130      19.28118102
  1 70 131      18.12456525
  1 70 132      17.24053502
  1 71 132      16.51025275
  1 71 133      15.39463277
  1 72 133      14.70974152
  1 72 134      14.21888610
  1 71 134      13.64896336
  1 71 135      12.85228728
  1 71 136      11.87633437
  1 70 136      11.00911849
  1 70 137       9.84228602
  1 70 138       8.68720394
  1 70 139       7.78453194
  1 71 139       7.11404877
  1 71 140       6.03904215
  1 71 141       5.30768372
  1 72 141       4.68592683
  1 72 142       3.58657792
  1 71 142       2.95105186
  1 71 143       2.14209417
  1 71 144       1.05539383
  1 70 144       0.31750076
END period  1

