BEGIN options
  SAVE_FLOWS
END options

BEGIN dimensions
  MAXBOUND  226
END dimensions

BEGIN period  1
  1 115 23     139.52179521
  1 115 24     138.71703286
  1 114 24     138.33011449
  1 114 25     137.89804473
  1 114 26     137.14926890
  1 114 27     136.40578631
  1 114 28     135.67449310
  1 114 29     134.94500991
  1 114 30     134.21578409
  1 114 31     133.48179140
  1 114 32     132.76722590
  1 113 32     131.96545062
  1 112 32     131.04887513
  1 111 32     130.45499425
  1 111 33     129.86972338
  1 111 34     129.27833542
  1 110 34     128.75794486
  1 110 35     128.14613362
  1 109 35     127.67589628
  1 109 36     127.06051934
  1 109 37     126.31871825
  1 109 38     125.58100372
  1 109 39     124.83928198
  1 109 40     124.09368407
  1 109 41     123.56273452
  1 108 41     123.15714606
  1 108 42     122.46127127
  1 107 42     121.79443494
  1 107 43     121.28609075
  1 106 43     120.54172260
  1 105 43     119.81061411
  1 105 44     119.22726912
  1 104 44     118.72428519
  1 104 45     118.06160964
  1 103 45     117.57459687
  1 103 46     117.09411921
  1 103 47     116.42708611
  1 102 47     115.88808387
  1 102 48     115.25331491
  1 101 48     114.73030617
  1 101 49     114.13804730
  1 101 50     113.40142645
  1 101 51     112.66644482
  1 101 52     111.93225584
  1 101 53     111.18681935
  1 101 54     110.43828753
  1 101 55     109.65059835
  1 100 55     109.18283056
  1 100 56     108.73574196
  1 100 57     107.95875702
  1 100 58     107.17476716
  1 100 59     106.76987052
  1 99 59     106.19886300
  1 98 59     105.54185993
  1 98 60     105.28085549
  1 99 60     104.81158786
  1 99 61     104.11577771
  1 99 62     103.34734632
  1 99 63     102.63466325
  1 100 63     102.23819534
  1 100 64     101.80594928
  1 100 65     101.03804297
  1 100 66     100.23287711
  1 100 67      99.44231869
  1 100 68      98.81128381
  1 101 68      98.38935448
  1 101 69      97.82002962
  1 101 70      97.02644203
  1 101 71      96.22090434
  1 101 72      95.70583304
  1 102 72      95.32224693
  1 102 73      94.65843627
  1 102 74      93.89426600
  1 102 75      93.08814578
  1 102 76      92.60406026
  1 103 76      92.21963187
  1 103 77      91.73664654
  1 102 77      91.31659051
  1 103 78      90.66355401
  1 103 79      89.89877480
  1 103 80      89.14775010
  1 104 80      88.69246810
  1 104 81      88.11959972
  1 104 82      87.50287210
  1 105 82      87.11633398
  1 105 83      86.47219812
  1 105 84      85.72890737
  1 105 85      84.99148777
  1 105 86      84.23861147
  1 105 87      83.48562839
  1 105 88      82.89010717
  1 106 88      82.51785878
  1 106 89      81.99187307
  1 106 90      81.40487911
  1 105 90      80.98699662
  1 105 91      80.39622393
  1 105 92      79.80568634
  1 106 92      79.41955296
  1 106 93      78.97292969
  1 105 93      78.60679291
  1 105 94      78.14089516
  1 105 95      77.76321097
  1 106 95      77.36000356
  1 106 96      76.55239335
  1 106 97      75.76898466
  1 106 98      75.00782270
  1 106 99      74.19579651
  1 105 99      73.70766204
  1 105 100      73.23967566
  1 105 101      72.45641494
  1 105 102      71.69466044
  1 105 103      70.92944446
  1 105 104      70.17980955
  1 105 105      69.43899373
  1 105 106      68.68982553
  1 105 107      68.07855881
  1 104 107      67.69499132
  1 104 108      67.16037971
  1 104 109      66.39110477
  1 104 110      65.64005290
  1 104 111      64.89087294
  1 104 112      64.29529898
  1 103 112      63.91582786
  1 103 113      63.38283054
  1 103 114      62.64437967
  1 103 115      61.89256533
  1 103 116      61.09454217
  1 103 117      60.44630996
  1 102 117      59.84660112
  1 102 118      59.05408701
  1 102 119      58.26347308
  1 102 120      57.58995002
  1 101 120      57.22250715
  1 101 121      56.77196509
  1 101 122      55.98353065
  1 101 123      55.29215492
  1 100 123      54.87237793
  1 100 124      54.36129177
  1 100 125      53.59973150
  1 100 126      52.85501752
  1 100 127      52.12044478
  1 100 128      51.38434555
  1 100 129      50.64775818
  1 100 130      49.91074924
  1 100 131      49.32493056
  1 99 131      48.95071245
  1 99 132      48.41961631
  1 99 133      47.67641721
  1 99 134      46.92975972
  1 99 135      46.14827711
  1 99 136      45.69684341
  1 98 136      45.31896931
  1 98 137      44.61306412
  1 98 138      43.86698389
  1 98 139      43.10885284
  1 98 140      42.45508985
  1 97 140      42.05902158
  1 97 141      41.53555713
  1 97 142      40.74642891
  1 97 143      40.09559359
  1 96 143      39.69608441
  1 96 144      39.11940016
  1 96 145      38.29921913
  1 95 145      37.90363084
  1 95 146      37.51263924
  1 95 147      36.75662236
  1 95 148      35.99071045
  1 95 149      35.31437722
  1 94 149      34.92068455
  1 94 150      34.41869000
  1 94 151      33.64566432
  1 94 152      32.89247447
  1 94 153      32.23449829
  1 93 153      31.84776134
  1 93 154      31.33060785
  1 93 155      30.53742415
  1 93 156      29.78265746
  1 93 157      29.03499717
  1 93 158      28.27243623
  1 93 159      27.52456661
  1 94 159      27.13396060
  1 94 160      26.71903684
  1 94 161      25.96374364
  1 94 162      25.22327505
  1 94 163      24.48831256
  1 94 164      23.74718257
  1 94 165      23.00633372
  1 94 166      22.28017772
  1 93 166      21.91235596
  1 94 167      21.52507462
  1 94 168      20.77226899
  1 94 169      20.02655217
  1 94 170      19.29007439
  1 94 171      18.54369973
  1 94 172      17.90039181
  1 93 172      17.50199407
  1 93 173      16.99301164
  1 93 174      16.24348660
  1 93 175      15.64347176
  1 94 175      15.24970113
  1 94 176      14.57207372
  1 94 177      14.02398005
  1 95 177      13.55453766
  1 95 178      12.74831977
  1 95 179      11.98112217
  1 95 180      11.25219252
  1 94 180      10.76821252
  1 94 181      10.22402949
  1 93 181       9.59288924
  1 93 182       8.98761379
  1 93 183       8.23969083
  1 93 184       7.51090893
  1 94 184       7.12046142
  1 94 185       6.65404063
  1 94 186       5.89810953
  1 95 186       5.42818595
  1 95 187       4.81423829
  1 95 188       4.21495382
  1 96 188       3.82755773
  1 96 189       3.40717600
  1 95 189       2.99684558
  1 95 190       2.31159704
  1 95 191       1.75281999
  1 94 191       1.31555534
  1 94 192       0.57104691
  1 93 192       0.07114536
END period  1

