BEGIN options
  SAVE_FLOWS
END options

BEGIN dimensions
  MAXBOUND  121
END dimensions

BEGIN period  1
  1 82 134      27.79344602
  1 82 135      27.31855197
  1 82 136      26.78369723
  1 82 137      26.30908655
  1 83 137      26.01032472
  1 83 138      25.55333457
  1 84 138      25.18055490
  1 84 139      24.84922795
  1 85 139      24.18720968
  1 86 139      23.75239581
  1 86 140      23.42992713
  1 87 140      22.92449756
  1 87 141      22.36352289
  1 87 142      21.81770831
  1 87 143      21.26623369
  1 87 144      20.66693515
  1 87 145      20.34674450
  1 86 145      20.01485412
  1 86 146      19.41927944
  1 86 147      18.87938735
  1 86 148      18.32019219
  1 86 149      17.77420663
  1 87 149      17.36959376
  1 87 150      16.93084869
  1 88 150      16.59569301
  1 88 151      16.28000608
  1 88 152      15.95782437
  1 87 152      15.64742331
  1 87 153      15.08347037
  1 87 154      14.50465914
  1 87 155      13.96285813
  1 87 156      13.42899525
  1 87 157      12.89353232
  1 87 158      12.35190654
  1 87 159      11.81287748
  1 87 160      11.28040814
  1 87 161      10.74981828
  1 87 162      10.21915081
  1 87 163       9.31758752
  1 87 164       9.21848876
  1 88 164       9.14004692
  1 88 165       9.01488436
  1 88 166       8.87542029
  1 89 166       8.80026711
  1 89 167       8.69727620
  1 90 167       8.52632842
  1 91 167       8.37146751
  1 92 167       8.26566491
  1 92 168       8.15717907
  1 93 168       8.06729701
  1 93 169       7.98357127
  1 93 170       7.84017637
  1 93 171       7.70212469
  1 93 172       7.56172980
  1 93 173       7.44038627
  1 94 173       7.36810564
  1 94 174       7.27719610
  1 94 175       7.14025811
  1 94 176       7.00129476
  1 94 177       6.85850884
  1 95 177       6.76947681
  1 95 178       6.67065229
  1 96 178       6.56174804
  1 96 179       6.44910650
  1 97 179       6.35838184
  1 97 180       6.27894587
  1 97 181       6.13304768
  1 97 182       5.98965467
  1 97 183       5.91749105
  1 98 183       5.84776833
  1 98 184       5.70913569
  1 98 185       5.57267494
  1 97 185       5.50354606
  1 97 186       5.43342483
  1 97 187       5.29700442
  1 97 188       5.15827357
  1 97 189       4.99926070
  1 96 189       4.89692892
  1 96 190       4.80071001
  1 96 191       4.67364672
  1 95 191       4.59361650
  1 95 192       4.47548611
  1 95 193       4.37422223
  1 94 193       4.29461908
  1 94 194       4.15451793
  1 94 195       4.06524464
  1 93 195       3.98759429
  1 93 196       3.84276946
  1 93 197       3.75037282
  1 92 197       3.67305741
  1 92 198       3.53691195
  1 92 199       3.39341330
  1 92 200       3.30029064
  1 91 200       3.23045211
  1 91 201       3.11405917
  1 91 202       2.97320100
  1 91 203       2.83083336
  1 91 204       2.72785188
  1 90 204       2.65618413
  1 90 205       2.54425853
  1 90 206       2.40048771
  1 90 207       2.27397576
  1 89 207       2.20201983
  1 89 208       2.10967515
  1 89 209       1.96124488
  1 89 210       1.84197728
  1 88 210       1.77098599
  1 88 211       1.67562044
  1 88 212       1.53724033
  1 88 213       1.40094568
  1 88 214       1.26465102
  1 88 215       1.11572266
  1 88 216       1.02306954
  1 87 216       0.91818999
  1 86 216       0.81205547
  1 86 217       0.71510703
  1 85 217       0.60121701
  1 85 218       0.49690228
  1 84 218       0.40460572
  1 84 219       0.31275179
  1 84 220       0.16947414
END period  1

