BEGIN options
  SAVE_FLOWS
END options

BEGIN dimensions
  MAXBOUND  121
END dimensions

BEGIN period  1
  1 82 134      22.87791006
  1 82 135      22.59720965
  1 82 136      22.28106768
  1 82 137      22.00053477
  1 83 137      21.82394261
  1 83 138      21.55382484
  1 84 138      21.33348221
  1 84 139      21.13764146
  1 85 139      20.74633565
  1 86 139      20.48932584
  1 86 140      20.29872103
  1 87 140      19.99997169
  1 87 141      19.66839075
  1 87 142      19.34577063
  1 87 143      19.01980498
  1 87 144      18.66557156
  1 87 145      18.47631325
  1 86 145      18.28013946
  1 86 146      17.92810714
  1 86 147      17.60898769
  1 86 148      17.27845858
  1 86 149      16.95573739
  1 87 149      16.71657879
  1 87 150      16.45724533
  1 88 150      16.25914149
  1 88 151      16.07254524
  1 88 152      15.88211005
  1 87 152      15.69863817
  1 87 153      15.36529683
  1 87 154      15.02317305
  1 87 155      14.70292528
  1 87 156      14.38736958
  1 87 157      14.07086811
  1 87 158      13.75072391
  1 87 159      13.43211458
  1 87 160      13.11738256
  1 87 161      12.80376147
  1 87 162      12.49009451
  1 87 163      11.85087423
  1 87 164      11.64679092
  1 88 164      11.48524834
  1 88 165      11.22748941
  1 88 166      10.94027806
  1 89 166      10.78550812
  1 89 167      10.57340934
  1 90 167      10.22136067
  1 91 167       9.90244115
  1 92 167       9.68455201
  1 92 168       9.46113701
  1 93 168       9.27603452
  1 93 169       9.10361030
  1 93 170       8.80830383
  1 93 171       8.52400113
  1 93 172       8.23487285
  1 93 173       7.98497884
  1 94 173       7.83612460
  1 94 174       7.64890611
  1 94 175       7.36689694
  1 94 176       7.08071677
  1 94 177       6.78666443
  1 95 177       6.60331247
  1 95 178       6.39979394
  1 96 178       6.17551727
  1 96 179       5.94354406
  1 97 179       5.75670631
  1 97 180       5.59311642
  1 97 181       5.29265469
  1 97 182       4.99735211
  1 97 183       4.84873883
  1 98 183       4.70515234
  1 98 184       4.41965324
  1 98 185       3.95261248
  1 97 185       3.90394765
  1 97 186       3.85458424
  1 97 187       3.75854802
  1 97 188       3.66088532
  1 97 189       3.54894464
  1 96 189       3.47690589
  1 96 190       3.40917042
  1 96 191       3.31972136
  1 95 191       3.26338229
  1 95 192       3.18022175
  1 95 193       3.10893477
  1 94 193       3.05289634
  1 94 194       2.95426899
  1 94 195       2.89142305
  1 93 195       2.83675934
  1 93 196       2.73480665
  1 93 197       2.66976196
  1 92 197       2.61533404
  1 92 198       2.51949139
  1 92 199       2.41847229
  1 92 200       2.35291650
  1 91 200       2.30375210
  1 91 201       2.22181467
  1 91 202       2.12265440
  1 91 203       2.02243150
  1 91 204       1.94993537
  1 90 204       1.89948325
  1 90 205       1.82069071
  1 90 206       1.71948001
  1 90 207       1.63041908
  1 89 207       1.57976409
  1 89 208       1.51475597
  1 89 209       1.41026515
  1 89 210       1.32630404
  1 88 210       1.27632813
  1 88 211       1.20919341
  1 88 212       1.11177762
  1 88 213       1.01582994
  1 88 214       0.91988226
  1 88 215       0.81504079
  1 88 216       0.74981554
  1 87 216       0.67598322
  1 86 216       0.60126745
  1 86 217       0.53301842
  1 85 217       0.45284298
  1 85 218       0.37940827
  1 84 218       0.31443404
  1 84 219       0.24977140
  1 84 220       0.14890788
END period  1

