BEGIN options
  SAVE_FLOWS
END options

BEGIN dimensions
  MAXBOUND  42
END dimensions

BEGIN period  1
  1 89 20     176.33664244
  1 89 21     173.00000000
  1 88 21     173.00000000
  1 88 22     173.00000000
  1 88 23     170.60941741
  1 88 24     161.83688316
  1 88 25     160.12226811
  1 87 25     157.44968025
  1 87 26     156.19476735
  1 86 26     155.19698031
  1 86 27     151.67619003
  1 86 28     150.24705424
  1 85 28     147.25531099
  1 85 29     145.83903363
  1 84 29     144.89788669
  1 84 30     141.76875889
  1 84 31     139.88286751
  1 83 31     137.52534025
  1 83 32     136.06907703
  1 83 33     134.77911021
  1 82 33     132.33025420
  1 82 34     130.84190327
  1 81 34     129.93501830
  1 81 35     126.66499415
  1 81 36     122.35182118
  1 81 37     121.52927511
  1 80 37     120.91454015
  1 80 38     119.84698913
  1 80 39     117.17780107
  1 80 40     115.52707943
  1 80 41     112.15571015
  1 80 42     110.49473459
  1 80 43     107.18336735
  1 80 44     105.52372699
  1 80 45     104.66229199
  1 79 45     102.42960428
  1 79 46     101.27701270
  1 79 47     100.17976442
  1 78 47      99.53611561
  1 78 48      96.47959830
  1 77 48      92.02719941
  1 77 49      90.51256956
END period  1

