BEGIN options
  SAVE_FLOWS
END options

BEGIN dimensions
  MAXBOUND  72
END dimensions

BEGIN period  1
  1 149 32     178.87179674
  1 148 32     178.37579378
  1 148 33     177.12272544
  1 147 33     175.98426101
  1 147 34     173.57349633
  1 147 35     172.72747445
  1 147 36     171.88713551
  1 147 37     171.04468050
  1 147 38     170.20141193
  1 147 39     168.01455215
  1 146 39     166.93653515
  1 146 40     165.62802473
  1 146 41     163.49282404
  1 145 41     162.15580162
  1 145 42     158.18154527
  1 145 43     157.32504946
  1 144 43     156.45831538
  1 144 44     155.41376558
  1 143 44     153.39563273
  1 143 45     152.30410799
  1 142 45     151.49119851
  1 142 46     150.43804165
  1 142 47     148.62507169
  1 141 47     147.84371245
  1 141 48     146.65405842
  1 140 48     145.72297545
  1 140 49     143.27140128
  1 140 50     142.08607988
  1 139 50     141.38171943
  1 139 51     140.39570278
  1 139 52     138.62917140
  1 138 52     137.82998639
  1 138 53     136.59425144
  1 138 54     135.47349524
  1 137 54     133.63701143
  1 137 55     132.82585947
  1 136 55     132.28152204
  1 136 56     131.65969171
  1 136 57     130.87326001
  1 135 57     130.33559456
  1 135 58     128.09919455
  1 135 59     127.11845071
  1 134 59     126.28806283
  1 134 60     123.49265188
  1 134 61     122.49062643
  1 134 62     121.50127178
  1 134 63     120.66985465
  1 133 63     120.15710563
  1 133 64     117.75051104
  1 133 65     114.00000000
  1 133 66     114.00000000
  1 133 67     114.00000000
  1 133 68     113.48939958
  1 133 69     112.48893416
  1 133 70     111.50917747
  1 133 71     110.51071441
  1 133 72     108.39169507
  1 133 73     107.56732088
  1 132 73     106.93447321
  1 132 74     105.88484711
  1 132 75     103.53558069
  1 132 76     102.72972745
  1 131 76     102.27268034
  1 131 77     101.67353766
  1 131 78     100.67564823
  1 131 79     100.15352656
  1 130 79      98.16442463
  1 130 80      97.09352522
  1 129 80      96.05838029
  1 128 80      93.21861336
  1 128 81      92.26693195
  1 127 81      91.19594452
END period  1

