BEGIN options
  SAVE_FLOWS
END options

BEGIN dimensions
  MAXBOUND  72
END dimensions

BEGIN period  1
  1 149 32     177.87179674
  1 148 32     177.37579378
  1 148 33     176.12272544
  1 147 33     174.98426101
  1 147 34     172.57349633
  1 147 35     171.72747445
  1 147 36     170.88713551
  1 147 37     170.04468050
  1 147 38     169.20141193
  1 147 39     167.01455215
  1 146 39     165.93653515
  1 146 40     164.62802473
  1 146 41     162.49282404
  1 145 41     161.15580162
  1 145 42     157.18154527
  1 145 43     156.32504946
  1 144 43     155.45831538
  1 144 44     154.41376558
  1 143 44     152.39563273
  1 143 45     151.30410799
  1 142 45     150.49119851
  1 142 46     149.43804165
  1 142 47     147.62507169
  1 141 47     146.84371245
  1 141 48     145.65405842
  1 140 48     144.72297545
  1 140 49     142.27140128
  1 140 50     141.08607988
  1 139 50     140.38171943
  1 139 51     139.39570278
  1 139 52     137.62917140
  1 138 52     136.82998639
  1 138 53     135.59425144
  1 138 54     134.47349524
  1 137 54     132.63701143
  1 137 55     131.82585947
  1 136 55     131.28152204
  1 136 56     130.65969171
  1 136 57     129.87326001
  1 135 57     129.33559456
  1 135 58     127.09919455
  1 135 59     126.11845071
  1 134 59     125.28806283
  1 134 60     122.49265188
  1 134 61     121.49062643
  1 134 62     120.50127178
  1 134 63     119.66985465
  1 133 63     119.15710563
  1 133 64     116.75051104
  1 133 65     113.00000000
  1 133 66     113.00000000
  1 133 67     113.00000000
  1 133 68     112.48939958
  1 133 69     111.48893416
  1 133 70     110.50917747
  1 133 71     109.51071441
  1 133 72     107.39169507
  1 133 73     106.56732088
  1 132 73     105.93447321
  1 132 74     104.88484711
  1 132 75     102.53558069
  1 132 76     101.72972745
  1 131 76     101.27268034
  1 131 77     100.67353766
  1 131 78      99.67564823
  1 131 79      99.15352656
  1 130 79      97.16442463
  1 130 80      96.09352522
  1 129 80      95.05838029
  1 128 80      92.21861336
  1 128 81      91.26693195
  1 127 81      90.19594452
END period  1

