BEGIN options
  SAVE_FLOWS
END options

BEGIN dimensions
  MAXBOUND  98
END dimensions

BEGIN period  1
  1 174 96     135.04361640
  1 173 96     135.31761286
  1 173 97     134.24557646
  1 173 98     128.93347401
  1 173 99     128.99163521
  1 173 100     128.14349362
  1 173 101     126.22638636
  1 173 102     122.08954646
  1 173 103     120.06333003
  1 174 103     118.78285325
  1 173 104     116.84345616
  1 173 105     114.06702245
  1 173 106     111.85921638
  1 172 106     112.18583487
  1 172 107     112.71370702
  1 172 108     112.96105486
  1 172 109     110.34211963
  1 172 110     109.91809746
  1 172 111     108.93941001
  1 173 111     108.41073292
  1 173 112     108.12042159
  1 173 113     106.96350654
  1 172 113     105.93977669
  1 172 114     104.87139341
  1 172 115     103.46410275
  1 171 115     102.53482009
  1 171 116     101.77267021
  1 171 117      99.83849995
  1 171 118      99.79727407
  1 170 118      99.75419732
  1 169 118      99.68763815
  1 169 117      99.64865112
  1 169 119      99.63358865
  1 170 119      99.60358505
  1 170 120      99.53424789
  1 169 120      99.36607106
  1 169 121      99.06843013
  1 170 121      98.51626416
  1 170 122      97.03391667
  1 169 122      93.68864559
  1 169 123      87.45485887
  1 169 124      86.58167416
  1 168 124      84.31470490
  1 167 124      83.30364699
  1 167 125      82.63439815
  1 168 125      80.87247704
  1 169 125      80.54375397
  1 169 126      80.27767228
  1 168 126      80.08080883
  1 168 127      79.48055884
  1 167 127      77.65126006
  1 167 128      77.19765392
  1 167 129      76.85756837
  1 166 129      76.44019020
  1 166 130      75.15736173
  1 166 131      71.86824151
  1 166 132      71.75154711
  1 167 132      71.67793184
  1 166 133      71.53681255
  1 165 133      70.57149519
  1 165 132      69.64570054
  1 165 134      68.40477392
  1 164 134      68.23664833
  1 164 135      68.03377265
  1 163 135      66.61674051
  1 162 135      63.74017504
  1 162 136      62.73712722
  1 162 137      62.72233438
  1 163 137      62.44269179
  1 163 138      61.87081765
  1 163 139      61.15609997
  1 162 139      60.46080569
  1 162 140      60.40231402
  1 161 140      60.41614666
  1 160 140      60.57134492
  1 160 141      60.21544374
  1 161 141      59.55633674
  1 161 142      58.91538440
  1 161 143      58.04652384
  1 160 143      57.08693959
  1 159 143      55.86367548
  1 159 144      53.80264685
  1 159 145      52.32857407
  1 159 146      51.20084207
  1 160 146      50.28542326
  1 158 146      49.74238482
  1 158 147      47.39543890
  1 158 148      45.79714750
  1 158 149      44.94692201
  1 157 149      43.99635704
  1 157 148      45.12612276
  1 157 150      44.90264789
  1 156 150      44.54487728
  1 156 151      44.05819404
  1 155 151      41.91065484
  1 154 151      40.76163372
  1 154 152      39.68299353
  1 154 153      31.96052141
END period  1

