BEGIN options
  SAVE_FLOWS
END options

BEGIN dimensions
  MAXBOUND  53
END dimensions

BEGIN period  1
  1 104 58     134.30275266
  1 104 59     128.94812033
  1 104 60     127.67595391
  1 104 61     121.91400324
  1 104 62     119.03540568
  1 104 63     116.06673586
  1 104 64     112.22093661
  1 104 65     113.08358978
  1 103 65     113.40935008
  1 103 66     110.11213546
  1 103 67     109.06282047
  1 104 67     108.27325871
  1 104 68     106.61461442
  1 103 68     105.31292622
  1 103 69     103.72466535
  1 103 70     101.58277441
  1 103 71      99.84956501
  1 102 71      99.74888786
  1 102 72      99.40904548
  1 102 73      97.42715752
  1 102 74      93.73181381
  1 101 74      91.67049304
  1 101 75      83.40528623
  1 101 76      79.25015925
  1 100 76      78.54225514
  1 100 77      78.12083716
  1 101 77      77.69268532
  1 100 78      75.33448149
  1 100 79      71.83725202
  1 100 80      71.61734732
  1 99 80      70.42297625
  1 99 81      68.32371304
  1 98 81      66.15962650
  1 97 81      64.39733555
  1 97 82      62.74315571
  1 98 82      62.73183836
  1 98 83      61.85085632
  1 98 84      60.47229239
  1 97 84      60.45212786
  1 96 84      60.63394847
  1 96 85      60.04745968
  1 97 85      58.67966561
  1 97 86      57.50929950
  1 96 86      53.65782262
  1 95 86      53.05218059
  1 95 87      52.75683195
  1 96 87      51.96026442
  1 96 88      50.56496403
  1 95 88      47.72637882
  1 95 89      44.78420488
  1 94 89      43.00000000
  1 94 90      43.00000000
  1 93 91      41.56198176
END period  1

