BEGIN options
  SAVE_FLOWS
END options

BEGIN dimensions
  MAXBOUND  1331
END dimensions

BEGIN period  1
  1 21 221       0.00000000
  1 21 222       0.00000000
  1 21 223       0.00000000
  1 22 221       0.00000000
  1 22 222       0.00000000
  1 22 223       0.00000000
  1 22 224       0.00000000
  1 23 221       0.00000000
  1 23 222       0.00000000
  1 23 223       0.00000000
  1 23 224       0.00000000
  1 24 208       0.00000000
  1 24 209       0.00000000
  1 24 210       0.00000000
  1 24 220       0.00000000
  1 24 221       0.00000000
  1 24 222       0.00000000
  1 24 223       0.00000000
  1 24 224       0.00000000
  1 25 205       0.00000000
  1 25 206       0.00000000
  1 25 207       0.00000000
  1 25 208       0.00000000
  1 25 209       0.00000000
  1 25 210       0.00000000
  1 25 211       0.00000000
  1 25 213       0.00000000
  1 25 214       0.00000000
  1 25 215       0.00000000
  1 25 216       0.00000000
  1 25 218       0.00000000
  1 25 219       0.00000000
  1 25 220       0.00000000
  1 25 221       0.00000000
  1 25 222       0.00000000
  1 25 223       0.00000000
  1 25 224       0.00000000
  1 26 204       0.00000000
  1 26 205       0.00000000
  1 26 206       0.00000000
  1 26 207       0.00000000
  1 26 208       0.00000000
  1 26 209       0.00000000
  1 26 210       0.00000000
  1 26 211       0.00000000
  1 26 212       0.00000000
  1 26 213       0.00000000
  1 26 214       0.00000000
  1 26 215       0.00000000
  1 26 216       0.00000000
  1 26 217       0.00000000
  1 26 218       0.00000000
  1 26 219       0.00000000
  1 26 220       0.00000000
  1 26 221       0.00000000
  1 26 222       0.00000000
  1 26 223       0.00000000
  1 26 224       0.00000000
  1 27 204       0.00000000
  1 27 205       0.00000000
  1 27 206       0.00000000
  1 27 207       0.00000000
  1 27 208       0.00000000
  1 27 209       0.00000000
  1 27 210       0.00000000
  1 27 211       0.00000000
  1 27 212       0.00000000
  1 27 213       0.00000000
  1 27 214       0.00000000
  1 27 215       0.00000000
  1 27 216       0.00000000
  1 27 217       0.00000000
  1 27 218       0.00000000
  1 27 219       0.00000000
  1 27 220       0.00000000
  1 27 221       0.00000000
  1 27 222       0.00000000
  1 27 223       0.00000000
  1 27 224       0.00000000
  1 28 204       0.00000000
  1 28 205       0.00000000
  1 28 206       0.00000000
  1 28 207       0.00000000
  1 28 208       0.00000000
  1 28 209       0.00000000
  1 28 210       0.00000000
  1 28 211       0.00000000
  1 28 212       0.00000000
  1 28 213       0.00000000
  1 28 214       0.00000000
  1 28 215       0.00000000
  1 28 216       0.00000000
  1 28 217       0.00000000
  1 28 218       0.00000000
  1 28 219       0.00000000
  1 28 220       0.00000000
  1 28 221       0.00000000
  1 28 222       0.00000000
  1 28 223       0.00000000
  1 28 224       0.00000000
  1 29 204       0.00000000
  1 29 205       0.00000000
  1 29 206       0.00000000
  1 29 207       0.00000000
  1 29 208       0.00000000
  1 29 209       0.00000000
  1 29 210       0.00000000
  1 29 211       0.00000000
  1 29 212       0.00000000
  1 29 213       0.00000000
  1 29 214       0.00000000
  1 29 215       0.00000000
  1 29 216       0.00000000
  1 29 217       0.00000000
  1 29 218       0.00000000
  1 29 219       0.00000000
  1 29 220       0.00000000
  1 29 221       0.00000000
  1 29 222       0.00000000
  1 29 223       0.00000000
  1 29 224       0.00000000
  1 30 203       0.00000000
  1 30 204       0.00000000
  1 30 205       0.00000000
  1 30 206       0.00000000
  1 30 207       0.00000000
  1 30 208       0.00000000
  1 30 209       0.00000000
  1 30 210       0.00000000
  1 30 211       0.00000000
  1 30 212       0.00000000
  1 30 213       0.00000000
  1 30 214       0.00000000
  1 30 215       0.00000000
  1 30 216       0.00000000
  1 30 217       0.00000000
  1 30 218       0.00000000
  1 30 219       0.00000000
  1 30 220       0.00000000
  1 30 221       0.00000000
  1 30 222       0.00000000
  1 30 223       0.00000000
  1 30 224       0.00000000
  1 31 203       0.00000000
  1 31 204       0.00000000
  1 31 205       0.00000000
  1 31 206       0.00000000
  1 31 207       0.00000000
  1 31 208       0.00000000
  1 31 209       0.00000000
  1 31 210       0.00000000
  1 31 211       0.00000000
  1 31 212       0.00000000
  1 31 213       0.00000000
  1 31 214       0.00000000
  1 31 215       0.00000000
  1 31 216       0.00000000
  1 31 217       0.00000000
  1 31 218       0.00000000
  1 31 219       0.00000000
  1 31 220       0.00000000
  1 31 221       0.00000000
  1 31 222       0.00000000
  1 31 223       0.00000000
  1 32 203       0.00000000
  1 32 204       0.00000000
  1 32 205       0.00000000
  1 32 206       0.00000000
  1 32 207       0.00000000
  1 32 208       0.00000000
  1 32 209       0.00000000
  1 32 210       0.00000000
  1 32 211       0.00000000
  1 32 212       0.00000000
  1 32 213       0.00000000
  1 32 214       0.00000000
  1 32 215       0.00000000
  1 32 216       0.00000000
  1 32 217       0.00000000
  1 32 218       0.00000000
  1 32 219       0.00000000
  1 32 220       0.00000000
  1 32 221       0.00000000
  1 32 222       0.00000000
  1 33 203       0.00000000
  1 33 204       0.00000000
  1 33 205       0.00000000
  1 33 206       0.00000000
  1 33 207       0.00000000
  1 33 208       0.00000000
  1 33 209       0.00000000
  1 33 210       0.00000000
  1 33 211       0.00000000
  1 33 212       0.00000000
  1 33 213       0.00000000
  1 33 214       0.00000000
  1 33 215       0.00000000
  1 33 216       0.00000000
  1 33 217       0.00000000
  1 33 218       0.00000000
  1 33 219       0.00000000
  1 33 220       0.00000000
  1 33 221       0.00000000
  1 33 222       0.00000000
  1 34 205       0.00000000
  1 34 206       0.00000000
  1 34 207       0.00000000
  1 34 208       0.00000000
  1 34 209       0.00000000
  1 34 210       0.00000000
  1 34 211       0.00000000
  1 34 212       0.00000000
  1 34 213       0.00000000
  1 34 214       0.00000000
  1 34 215       0.00000000
  1 34 216       0.00000000
  1 34 217       0.00000000
  1 34 218       0.00000000
  1 34 219       0.00000000
  1 34 220       0.00000000
  1 34 221       0.00000000
  1 35 205       0.00000000
  1 35 206       0.00000000
  1 35 207       0.00000000
  1 35 208       0.00000000
  1 35 209       0.00000000
  1 35 210       0.00000000
  1 35 211       0.00000000
  1 35 212       0.00000000
  1 35 213       0.00000000
  1 35 214       0.00000000
  1 35 215       0.00000000
  1 35 216       0.00000000
  1 35 217       0.00000000
  1 35 218       0.00000000
  1 35 219       0.00000000
  1 35 220       0.00000000
  1 36 203       0.00000000
  1 36 205       0.00000000
  1 36 206       0.00000000
  1 36 207       0.00000000
  1 36 208       0.00000000
  1 36 209       0.00000000
  1 36 210       0.00000000
  1 36 211       0.00000000
  1 36 212       0.00000000
  1 36 213       0.00000000
  1 36 214       0.00000000
  1 36 215       0.00000000
  1 36 216       0.00000000
  1 36 217       0.00000000
  1 36 218       0.00000000
  1 36 219       0.00000000
  1 36 220       0.00000000
  1 37 202       0.00000000
  1 37 203       0.00000000
  1 37 204       0.00000000
  1 37 205       0.00000000
  1 37 206       0.00000000
  1 37 207       0.00000000
  1 37 208       0.00000000
  1 37 209       0.00000000
  1 37 210       0.00000000
  1 37 211       0.00000000
  1 37 212       0.00000000
  1 37 213       0.00000000
  1 37 214       0.00000000
  1 37 215       0.00000000
  1 37 216       0.00000000
  1 37 217       0.00000000
  1 37 218       0.00000000
  1 37 219       0.00000000
  1 38 202       0.00000000
  1 38 203       0.00000000
  1 38 204       0.00000000
  1 38 205       0.00000000
  1 38 206       0.00000000
  1 38 207       0.00000000
  1 38 208       0.00000000
  1 38 209       0.00000000
  1 38 210       0.00000000
  1 38 211       0.00000000
  1 38 212       0.00000000
  1 38 213       0.00000000
  1 38 214       0.00000000
  1 38 215       0.00000000
  1 38 216       0.00000000
  1 38 217       0.00000000
  1 38 218       0.00000000
  1 39 201       0.00000000
  1 39 202       0.00000000
  1 39 203       0.00000000
  1 39 204       0.00000000
  1 39 205       0.00000000
  1 39 206       0.00000000
  1 39 207       0.00000000
  1 39 208       0.00000000
  1 39 209       0.00000000
  1 39 210       0.00000000
  1 39 211       0.00000000
  1 39 212       0.00000000
  1 39 213       0.00000000
  1 39 214       0.00000000
  1 39 215       0.00000000
  1 39 216       0.00000000
  1 39 217       0.00000000
  1 40 201       0.00000000
  1 40 202       0.00000000
  1 40 203       0.00000000
  1 40 204       0.00000000
  1 40 205       0.00000000
  1 40 206       0.00000000
  1 40 207       0.00000000
  1 40 208       0.00000000
  1 40 209       0.00000000
  1 40 210       0.00000000
  1 40 211       0.00000000
  1 40 212       0.00000000
  1 40 213       0.00000000
  1 40 214       0.00000000
  1 40 215       0.00000000
  1 40 216       0.00000000
  1 40 217       0.00000000
  1 41 199       0.00000000
  1 41 200       0.00000000
  1 41 201       0.00000000
  1 41 202       0.00000000
  1 41 203       0.00000000
  1 41 204       0.00000000
  1 41 205       0.00000000
  1 41 206       0.00000000
  1 41 207       0.00000000
  1 41 208       0.00000000
  1 41 209       0.00000000
  1 41 210       0.00000000
  1 41 211       0.00000000
  1 41 212       0.00000000
  1 41 213       0.00000000
  1 41 214       0.00000000
  1 41 215       0.00000000
  1 41 216       0.00000000
  1 42 196       0.00000000
  1 42 197       0.00000000
  1 42 198       0.00000000
  1 42 199       0.00000000
  1 42 200       0.00000000
  1 42 201       0.00000000
  1 42 202       0.00000000
  1 42 203       0.00000000
  1 42 204       0.00000000
  1 42 205       0.00000000
  1 42 206       0.00000000
  1 42 207       0.00000000
  1 42 208       0.00000000
  1 42 209       0.00000000
  1 42 210       0.00000000
  1 42 211       0.00000000
  1 42 212       0.00000000
  1 42 213       0.00000000
  1 42 214       0.00000000
  1 42 215       0.00000000
  1 42 216       0.00000000
  1 43 194       0.00000000
  1 43 195       0.00000000
  1 43 196       0.00000000
  1 43 197       0.00000000
  1 43 198       0.00000000
  1 43 199       0.00000000
  1 43 200       0.00000000
  1 43 201       0.00000000
  1 43 202       0.00000000
  1 43 203       0.00000000
  1 43 204       0.00000000
  1 43 205       0.00000000
  1 43 206       0.00000000
  1 43 207       0.00000000
  1 43 208       0.00000000
  1 43 209       0.00000000
  1 43 210       0.00000000
  1 43 211       0.00000000
  1 43 212       0.00000000
  1 43 213       0.00000000
  1 43 214       0.00000000
  1 43 215       0.00000000
  1 43 216       0.00000000
  1 44 193       0.00000000
  1 44 194       0.00000000
  1 44 195       0.00000000
  1 44 196       0.00000000
  1 44 197       0.00000000
  1 44 198       0.00000000
  1 44 199       0.00000000
  1 44 200       0.00000000
  1 44 201       0.00000000
  1 44 202       0.00000000
  1 44 203       0.00000000
  1 44 204       0.00000000
  1 44 205       0.00000000
  1 44 206       0.00000000
  1 44 207       0.00000000
  1 44 208       0.00000000
  1 44 209       0.00000000
  1 44 210       0.00000000
  1 44 211       0.00000000
  1 44 212       0.00000000
  1 44 213       0.00000000
  1 44 214       0.00000000
  1 44 215       0.00000000
  1 44 216       0.00000000
  1 45 192       0.00000000
  1 45 193       0.00000000
  1 45 194       0.00000000
  1 45 195       0.00000000
  1 45 196       0.00000000
  1 45 197       0.00000000
  1 45 198       0.00000000
  1 45 199       0.00000000
  1 45 200       0.00000000
  1 45 201       0.00000000
  1 45 202       0.00000000
  1 45 203       0.00000000
  1 45 204       0.00000000
  1 45 205       0.00000000
  1 45 206       0.00000000
  1 45 207       0.00000000
  1 45 208       0.00000000
  1 45 209       0.00000000
  1 45 210       0.00000000
  1 45 211       0.00000000
  1 45 212       0.00000000
  1 45 213       0.00000000
  1 45 215       0.00000000
  1 45 216       0.00000000
  1 46 190       0.00000000
  1 46 191       0.00000000
  1 46 192       0.00000000
  1 46 193       0.00000000
  1 46 194       0.00000000
  1 46 195       0.00000000
  1 46 196       0.00000000
  1 46 197       0.00000000
  1 46 198       0.00000000
  1 46 199       0.00000000
  1 46 200       0.00000000
  1 46 201       0.00000000
  1 46 202       0.00000000
  1 46 203       0.00000000
  1 46 204       0.00000000
  1 46 205       0.00000000
  1 46 206       0.00000000
  1 46 207       0.00000000
  1 46 208       0.00000000
  1 46 209       0.00000000
  1 46 210       0.00000000
  1 46 211       0.00000000
  1 46 212       0.00000000
  1 46 213       0.00000000
  1 46 215       0.00000000
  1 46 216       0.00000000
  1 46 217       0.00000000
  1 46 218       0.00000000
  1 47 189       0.00000000
  1 47 190       0.00000000
  1 47 191       0.00000000
  1 47 192       0.00000000
  1 47 193       0.00000000
  1 47 194       0.00000000
  1 47 195       0.00000000
  1 47 196       0.00000000
  1 47 197       0.00000000
  1 47 198       0.00000000
  1 47 199       0.00000000
  1 47 200       0.00000000
  1 47 201       0.00000000
  1 47 202       0.00000000
  1 47 203       0.00000000
  1 47 204       0.00000000
  1 47 205       0.00000000
  1 47 206       0.00000000
  1 47 207       0.00000000
  1 47 208       0.00000000
  1 47 209       0.00000000
  1 47 210       0.00000000
  1 47 211       0.00000000
  1 47 212       0.00000000
  1 47 213       0.00000000
  1 47 214       0.00000000
  1 47 215       0.00000000
  1 47 216       0.00000000
  1 47 217       0.00000000
  1 48 188       0.00000000
  1 48 189       0.00000000
  1 48 190       0.00000000
  1 48 191       0.00000000
  1 48 192       0.00000000
  1 48 193       0.00000000
  1 48 194       0.00000000
  1 48 195       0.00000000
  1 48 196       0.00000000
  1 48 197       0.00000000
  1 48 198       0.00000000
  1 48 199       0.00000000
  1 48 200       0.00000000
  1 48 201       0.00000000
  1 48 202       0.00000000
  1 48 203       0.00000000
  1 48 204       0.00000000
  1 48 205       0.00000000
  1 48 206       0.00000000
  1 48 207       0.00000000
  1 48 208       0.00000000
  1 48 209       0.00000000
  1 48 210       0.00000000
  1 48 211       0.00000000
  1 48 212       0.00000000
  1 48 214       0.00000000
  1 48 215       0.00000000
  1 48 216       0.00000000
  1 48 217       0.00000000
  1 48 218       0.00000000
  1 49 187       0.00000000
  1 49 188       0.00000000
  1 49 189       0.00000000
  1 49 190       0.00000000
  1 49 191       0.00000000
  1 49 192       0.00000000
  1 49 193       0.00000000
  1 49 194       0.00000000
  1 49 195       0.00000000
  1 49 196       0.00000000
  1 49 197       0.00000000
  1 49 198       0.00000000
  1 49 199       0.00000000
  1 49 200       0.00000000
  1 49 201       0.00000000
  1 49 202       0.00000000
  1 49 203       0.00000000
  1 49 204       0.00000000
  1 49 205       0.00000000
  1 49 206       0.00000000
  1 49 207       0.00000000
  1 49 208       0.00000000
  1 49 209       0.00000000
  1 49 210       0.00000000
  1 49 211       0.00000000
  1 49 212       0.00000000
  1 49 213       0.00000000
  1 49 214       0.00000000
  1 49 215       0.00000000
  1 49 216       0.00000000
  1 49 218       0.00000000
  1 49 219       0.00000000
  1 50 187       0.00000000
  1 50 188       0.00000000
  1 50 189       0.00000000
  1 50 190       0.00000000
  1 50 191       0.00000000
  1 50 192       0.00000000
  1 50 193       0.00000000
  1 50 194       0.00000000
  1 50 195       0.00000000
  1 50 196       0.00000000
  1 50 197       0.00000000
  1 50 198       0.00000000
  1 50 199       0.00000000
  1 50 200       0.00000000
  1 50 201       0.00000000
  1 50 202       0.00000000
  1 50 203       0.00000000
  1 50 204       0.00000000
  1 50 205       0.00000000
  1 50 206       0.00000000
  1 50 207       0.00000000
  1 50 208       0.00000000
  1 50 209       0.00000000
  1 50 210       0.00000000
  1 50 211       0.00000000
  1 50 212       0.00000000
  1 50 213       0.00000000
  1 50 214       0.00000000
  1 50 215       0.00000000
  1 50 216       0.00000000
  1 50 218       0.00000000
  1 50 219       0.00000000
  1 51 186       0.00000000
  1 51 187       0.00000000
  1 51 188       0.00000000
  1 51 189       0.00000000
  1 51 190       0.00000000
  1 51 191       0.00000000
  1 51 192       0.00000000
  1 51 193       0.00000000
  1 51 194       0.00000000
  1 51 195       0.00000000
  1 51 196       0.00000000
  1 51 197       0.00000000
  1 51 198       0.00000000
  1 51 199       0.00000000
  1 51 200       0.00000000
  1 51 201       0.00000000
  1 51 202       0.00000000
  1 51 203       0.00000000
  1 51 204       0.00000000
  1 51 205       0.00000000
  1 51 206       0.00000000
  1 51 207       0.00000000
  1 51 208       0.00000000
  1 51 209       0.00000000
  1 51 210       0.00000000
  1 51 211       0.00000000
  1 51 212       0.00000000
  1 51 213       0.00000000
  1 51 214       0.00000000
  1 51 215       0.00000000
  1 51 216       0.00000000
  1 51 218       0.00000000
  1 51 219       0.00000000
  1 52 186       0.00000000
  1 52 187       0.00000000
  1 52 188       0.00000000
  1 52 189       0.00000000
  1 52 190       0.00000000
  1 52 191       0.00000000
  1 52 192       0.00000000
  1 52 193       0.00000000
  1 52 194       0.00000000
  1 52 195       0.00000000
  1 52 196       0.00000000
  1 52 197       0.00000000
  1 52 198       0.00000000
  1 52 199       0.00000000
  1 52 200       0.00000000
  1 52 201       0.00000000
  1 52 202       0.00000000
  1 52 203       0.00000000
  1 52 204       0.00000000
  1 52 205       0.00000000
  1 52 206       0.00000000
  1 52 207       0.00000000
  1 52 208       0.00000000
  1 52 209       0.00000000
  1 52 210       0.00000000
  1 52 211       0.00000000
  1 52 212       0.00000000
  1 52 213       0.00000000
  1 52 214       0.00000000
  1 52 215       0.00000000
  1 52 218       0.00000000
  1 52 219       0.00000000
  1 53 186       0.00000000
  1 53 187       0.00000000
  1 53 188       0.00000000
  1 53 189       0.00000000
  1 53 190       0.00000000
  1 53 191       0.00000000
  1 53 192       0.00000000
  1 53 193       0.00000000
  1 53 194       0.00000000
  1 53 195       0.00000000
  1 53 196       0.00000000
  1 53 197       0.00000000
  1 53 198       0.00000000
  1 53 199       0.00000000
  1 53 200       0.00000000
  1 53 201       0.00000000
  1 53 202       0.00000000
  1 53 203       0.00000000
  1 53 204       0.00000000
  1 53 205       0.00000000
  1 53 206       0.00000000
  1 53 207       0.00000000
  1 53 208       0.00000000
  1 53 209       0.00000000
  1 53 210       0.00000000
  1 53 211       0.00000000
  1 53 212       0.00000000
  1 53 213       0.00000000
  1 53 214       0.00000000
  1 53 219       0.00000000
  1 54 185       0.00000000
  1 54 186       0.00000000
  1 54 187       0.00000000
  1 54 188       0.00000000
  1 54 189       0.00000000
  1 54 190       0.00000000
  1 54 191       0.00000000
  1 54 192       0.00000000
  1 54 193       0.00000000
  1 54 194       0.00000000
  1 54 195       0.00000000
  1 54 196       0.00000000
  1 54 197       0.00000000
  1 54 198       0.00000000
  1 54 199       0.00000000
  1 54 200       0.00000000
  1 54 201       0.00000000
  1 54 202       0.00000000
  1 54 203       0.00000000
  1 54 204       0.00000000
  1 54 205       0.00000000
  1 54 206       0.00000000
  1 54 207       0.00000000
  1 54 208       0.00000000
  1 54 209       0.00000000
  1 54 210       0.00000000
  1 54 211       0.00000000
  1 54 212       0.00000000
  1 55 184       0.00000000
  1 55 185       0.00000000
  1 55 186       0.00000000
  1 55 187       0.00000000
  1 55 188       0.00000000
  1 55 189       0.00000000
  1 55 190       0.00000000
  1 55 191       0.00000000
  1 55 192       0.00000000
  1 55 193       0.00000000
  1 55 194       0.00000000
  1 55 195       0.00000000
  1 55 196       0.00000000
  1 55 197       0.00000000
  1 55 198       0.00000000
  1 55 199       0.00000000
  1 55 200       0.00000000
  1 55 201       0.00000000
  1 55 202       0.00000000
  1 55 203       0.00000000
  1 55 204       0.00000000
  1 55 205       0.00000000
  1 55 206       0.00000000
  1 55 207       0.00000000
  1 55 208       0.00000000
  1 55 209       0.00000000
  1 55 210       0.00000000
  1 55 211       0.00000000
  1 55 212       0.00000000
  1 55 213       0.00000000
  1 55 214       0.00000000
  1 55 215       0.00000000
  1 55 216       0.00000000
  1 55 218       0.00000000
  1 55 219       0.00000000
  1 56 183       0.00000000
  1 56 184       0.00000000
  1 56 185       0.00000000
  1 56 186       0.00000000
  1 56 189       0.00000000
  1 56 190       0.00000000
  1 56 191       0.00000000
  1 56 192       0.00000000
  1 56 193       0.00000000
  1 56 194       0.00000000
  1 56 195       0.00000000
  1 56 196       0.00000000
  1 56 197       0.00000000
  1 56 198       0.00000000
  1 56 199       0.00000000
  1 56 200       0.00000000
  1 56 201       0.00000000
  1 56 202       0.00000000
  1 56 203       0.00000000
  1 56 204       0.00000000
  1 56 205       0.00000000
  1 56 206       0.00000000
  1 56 207       0.00000000
  1 56 208       0.00000000
  1 56 209       0.00000000
  1 56 210       0.00000000
  1 56 211       0.00000000
  1 56 213       0.00000000
  1 56 214       0.00000000
  1 56 215       0.00000000
  1 56 216       0.00000000
  1 56 217       0.00000000
  1 56 218       0.00000000
  1 57 184       0.00000000
  1 57 185       0.00000000
  1 57 189       0.00000000
  1 57 190       0.00000000
  1 57 191       0.00000000
  1 57 192       0.00000000
  1 57 193       0.00000000
  1 57 194       0.00000000
  1 57 195       0.00000000
  1 57 196       0.00000000
  1 57 197       0.00000000
  1 57 198       0.00000000
  1 57 199       0.00000000
  1 57 200       0.00000000
  1 57 201       0.00000000
  1 57 202       0.00000000
  1 57 203       0.00000000
  1 57 204       0.00000000
  1 57 205       0.00000000
  1 57 206       0.00000000
  1 57 207       0.00000000
  1 57 208       0.00000000
  1 57 209       0.00000000
  1 57 210       0.00000000
  1 57 211       0.00000000
  1 57 213       0.00000000
  1 57 214       0.00000000
  1 57 215       0.00000000
  1 57 216       0.00000000
  1 57 217       0.00000000
  1 57 218       0.00000000
  1 58 189       0.00000000
  1 58 190       0.00000000
  1 58 191       0.00000000
  1 58 192       0.00000000
  1 58 193       0.00000000
  1 58 194       0.00000000
  1 58 195       0.00000000
  1 58 196       0.00000000
  1 58 197       0.00000000
  1 58 198       0.00000000
  1 58 199       0.00000000
  1 58 200       0.00000000
  1 58 201       0.00000000
  1 58 202       0.00000000
  1 58 203       0.00000000
  1 58 204       0.00000000
  1 58 205       0.00000000
  1 58 206       0.00000000
  1 58 207       0.00000000
  1 58 208       0.00000000
  1 58 209       0.00000000
  1 58 210       0.00000000
  1 58 213       0.00000000
  1 58 214       0.00000000
  1 58 215       0.00000000
  1 58 216       0.00000000
  1 58 217       0.00000000
  1 59 190       0.00000000
  1 59 191       0.00000000
  1 59 192       0.00000000
  1 59 193       0.00000000
  1 59 194       0.00000000
  1 59 195       0.00000000
  1 59 196       0.00000000
  1 59 197       0.00000000
  1 59 198       0.00000000
  1 59 199       0.00000000
  1 59 200       0.00000000
  1 59 201       0.00000000
  1 59 202       0.00000000
  1 59 203       0.00000000
  1 59 204       0.00000000
  1 59 205       0.00000000
  1 59 206       0.00000000
  1 59 207       0.00000000
  1 59 208       0.00000000
  1 59 209       0.00000000
  1 59 210       0.00000000
  1 59 213       0.00000000
  1 59 214       0.00000000
  1 59 215       0.00000000
  1 59 216       0.00000000
  1 60 190       0.00000000
  1 60 191       0.00000000
  1 60 192       0.00000000
  1 60 193       0.00000000
  1 60 194       0.00000000
  1 60 195       0.00000000
  1 60 196       0.00000000
  1 60 197       0.00000000
  1 60 198       0.00000000
  1 60 199       0.00000000
  1 60 200       0.00000000
  1 60 201       0.00000000
  1 60 202       0.00000000
  1 60 203       0.00000000
  1 60 204       0.00000000
  1 60 205       0.00000000
  1 60 206       0.00000000
  1 60 207       0.00000000
  1 60 208       0.00000000
  1 60 209       0.00000000
  1 60 210       0.00000000
  1 60 211       0.00000000
  1 60 213       0.00000000
  1 60 214       0.00000000
  1 60 215       0.00000000
  1 60 217       0.00000000
  1 61 190       0.00000000
  1 61 191       0.00000000
  1 61 192       0.00000000
  1 61 193       0.00000000
  1 61 194       0.00000000
  1 61 195       0.00000000
  1 61 196       0.00000000
  1 61 197       0.00000000
  1 61 198       0.00000000
  1 61 199       0.00000000
  1 61 200       0.00000000
  1 61 201       0.00000000
  1 61 202       0.00000000
  1 61 203       0.00000000
  1 61 204       0.00000000
  1 61 205       0.00000000
  1 61 206       0.00000000
  1 61 207       0.00000000
  1 61 208       0.00000000
  1 61 209       0.00000000
  1 61 210       0.00000000
  1 61 211       0.00000000
  1 61 212       0.00000000
  1 61 213       0.00000000
  1 61 214       0.00000000
  1 61 215       0.00000000
  1 62 190       0.00000000
  1 62 191       0.00000000
  1 62 192       0.00000000
  1 62 193       0.00000000
  1 62 194       0.00000000
  1 62 195       0.00000000
  1 62 196       0.00000000
  1 62 197       0.00000000
  1 62 198       0.00000000
  1 62 199       0.00000000
  1 62 200       0.00000000
  1 62 201       0.00000000
  1 62 202       0.00000000
  1 62 203       0.00000000
  1 62 204       0.00000000
  1 62 205       0.00000000
  1 62 206       0.00000000
  1 62 207       0.00000000
  1 62 208       0.00000000
  1 62 209       0.00000000
  1 62 210       0.00000000
  1 62 211       0.00000000
  1 62 212       0.00000000
  1 62 214       0.00000000
  1 62 216       0.00000000
  1 63 191       0.00000000
  1 63 192       0.00000000
  1 63 193       0.00000000
  1 63 194       0.00000000
  1 63 195       0.00000000
  1 63 196       0.00000000
  1 63 197       0.00000000
  1 63 198       0.00000000
  1 63 199       0.00000000
  1 63 200       0.00000000
  1 63 201       0.00000000
  1 63 202       0.00000000
  1 63 203       0.00000000
  1 63 204       0.00000000
  1 63 205       0.00000000
  1 63 206       0.00000000
  1 63 207       0.00000000
  1 63 208       0.00000000
  1 63 209       0.00000000
  1 63 210       0.00000000
  1 63 211       0.00000000
  1 63 212       0.00000000
  1 63 213       0.00000000
  1 64 191       0.00000000
  1 64 192       0.00000000
  1 64 193       0.00000000
  1 64 194       0.00000000
  1 64 195       0.00000000
  1 64 196       0.00000000
  1 64 197       0.00000000
  1 64 198       0.00000000
  1 64 199       0.00000000
  1 64 200       0.00000000
  1 64 201       0.00000000
  1 64 202       0.00000000
  1 64 203       0.00000000
  1 64 204       0.00000000
  1 64 205       0.00000000
  1 64 206       0.00000000
  1 64 207       0.00000000
  1 64 208       0.00000000
  1 64 209       0.00000000
  1 64 210       0.00000000
  1 64 211       0.00000000
  1 64 212       0.00000000
  1 64 213       0.00000000
  1 64 214       0.00000000
  1 64 215       0.00000000
  1 64 216       0.00000000
  1 65 192       0.00000000
  1 65 193       0.00000000
  1 65 194       0.00000000
  1 65 195       0.00000000
  1 65 196       0.00000000
  1 65 197       0.00000000
  1 65 198       0.00000000
  1 65 199       0.00000000
  1 65 200       0.00000000
  1 65 201       0.00000000
  1 65 202       0.00000000
  1 65 203       0.00000000
  1 65 204       0.00000000
  1 65 205       0.00000000
  1 65 206       0.00000000
  1 65 207       0.00000000
  1 65 208       0.00000000
  1 65 209       0.00000000
  1 65 210       0.00000000
  1 65 211       0.00000000
  1 65 212       0.00000000
  1 65 215       0.00000000
  1 66 192       0.00000000
  1 66 193       0.00000000
  1 66 194       0.00000000
  1 66 195       0.00000000
  1 66 196       0.00000000
  1 66 197       0.00000000
  1 66 198       0.00000000
  1 66 199       0.00000000
  1 66 200       0.00000000
  1 66 201       0.00000000
  1 66 202       0.00000000
  1 66 203       0.00000000
  1 66 204       0.00000000
  1 66 205       0.00000000
  1 66 206       0.00000000
  1 66 207       0.00000000
  1 66 208       0.00000000
  1 66 209       0.00000000
  1 66 210       0.00000000
  1 66 211       0.00000000
  1 66 212       0.00000000
  1 67 192       0.00000000
  1 67 193       0.00000000
  1 67 194       0.00000000
  1 67 195       0.00000000
  1 67 196       0.00000000
  1 67 197       0.00000000
  1 67 198       0.00000000
  1 67 199       0.00000000
  1 67 200       0.00000000
  1 67 201       0.00000000
  1 67 202       0.00000000
  1 67 203       0.00000000
  1 67 204       0.00000000
  1 67 205       0.00000000
  1 67 206       0.00000000
  1 67 207       0.00000000
  1 67 208       0.00000000
  1 67 209       0.00000000
  1 67 210       0.00000000
  1 67 211       0.00000000
  1 67 212       0.00000000
  1 67 213       0.00000000
  1 68 193       0.00000000
  1 68 194       0.00000000
  1 68 195       0.00000000
  1 68 196       0.00000000
  1 68 197       0.00000000
  1 68 198       0.00000000
  1 68 199       0.00000000
  1 68 200       0.00000000
  1 68 201       0.00000000
  1 68 202       0.00000000
  1 68 203       0.00000000
  1 68 204       0.00000000
  1 68 205       0.00000000
  1 68 206       0.00000000
  1 68 207       0.00000000
  1 68 208       0.00000000
  1 68 209       0.00000000
  1 68 210       0.00000000