BEGIN options
  SAVE_FLOWS
END options

BEGIN dimensions
  MAXBOUND  488
END dimensions

BEGIN period  1
  1 13 133       0.00000000
  1 13 134       0.00000000
  1 14 133       0.00000000
  1 14 134       0.00000000
  1 14 135       0.00000000
  1 15 124       0.00000000
  1 15 125       0.00000000
  1 15 126       0.00000000
  1 15 128       0.00000000
  1 15 129       0.00000000
  1 15 130       0.00000000
  1 15 131       0.00000000
  1 15 132       0.00000000
  1 15 133       0.00000000
  1 15 134       0.00000000
  1 15 135       0.00000000
  1 16 123       0.00000000
  1 16 124       0.00000000
  1 16 125       0.00000000
  1 16 126       0.00000000
  1 16 127       0.00000000
  1 16 128       0.00000000
  1 16 129       0.00000000
  1 16 130       0.00000000
  1 16 131       0.00000000
  1 16 132       0.00000000
  1 16 133       0.00000000
  1 16 134       0.00000000
  1 16 135       0.00000000
  1 17 123       0.00000000
  1 17 124       0.00000000
  1 17 125       0.00000000
  1 17 126       0.00000000
  1 17 127       0.00000000
  1 17 128       0.00000000
  1 17 129       0.00000000
  1 17 130       0.00000000
  1 17 131       0.00000000
  1 17 132       0.00000000
  1 17 133       0.00000000
  1 17 134       0.00000000
  1 17 135       0.00000000
  1 18 122       0.00000000
  1 18 123       0.00000000
  1 18 124       0.00000000
  1 18 125       0.00000000
  1 18 126       0.00000000
  1 18 127       0.00000000
  1 18 128       0.00000000
  1 18 129       0.00000000
  1 18 130       0.00000000
  1 18 131       0.00000000
  1 18 132       0.00000000
  1 18 133       0.00000000
  1 18 134       0.00000000
  1 19 122       0.00000000
  1 19 123       0.00000000
  1 19 124       0.00000000
  1 19 125       0.00000000
  1 19 126       0.00000000
  1 19 127       0.00000000
  1 19 128       0.00000000
  1 19 129       0.00000000
  1 19 130       0.00000000
  1 19 131       0.00000000
  1 19 132       0.00000000
  1 19 133       0.00000000
  1 19 134       0.00000000
  1 20 123       0.00000000
  1 20 124       0.00000000
  1 20 125       0.00000000
  1 20 126       0.00000000
  1 20 127       0.00000000
  1 20 128       0.00000000
  1 20 129       0.00000000
  1 20 130       0.00000000
  1 20 131       0.00000000
  1 20 132       0.00000000
  1 20 133       0.00000000
  1 21 123       0.00000000
  1 21 124       0.00000000
  1 21 125       0.00000000
  1 21 126       0.00000000
  1 21 127       0.00000000
  1 21 128       0.00000000
  1 21 129       0.00000000
  1 21 130       0.00000000
  1 21 131       0.00000000
  1 21 132       0.00000000
  1 22 122       0.00000000
  1 22 123       0.00000000
  1 22 124       0.00000000
  1 22 125       0.00000000
  1 22 126       0.00000000
  1 22 127       0.00000000
  1 22 128       0.00000000
  1 22 129       0.00000000
  1 22 130       0.00000000
  1 22 131       0.00000000
  1 22 132       0.00000000
  1 23 121       0.00000000
  1 23 122       0.00000000
  1 23 123       0.00000000
  1 23 124       0.00000000
  1 23 125       0.00000000
  1 23 126       0.00000000
  1 23 127       0.00000000
  1 23 128       0.00000000
  1 23 129       0.00000000
  1 23 130       0.00000000
  1 23 131       0.00000000
  1 24 121       0.00000000
  1 24 122       0.00000000
  1 24 123       0.00000000
  1 24 124       0.00000000
  1 24 125       0.00000000
  1 24 126       0.00000000
  1 24 127       0.00000000
  1 24 128       0.00000000
  1 24 129       0.00000000
  1 24 130       0.00000000
  1 25 119       0.00000000
  1 25 120       0.00000000
  1 25 121       0.00000000
  1 25 122       0.00000000
  1 25 123       0.00000000
  1 25 124       0.00000000
  1 25 125       0.00000000
  1 25 126       0.00000000
  1 25 127       0.00000000
  1 25 128       0.00000000
  1 25 129       0.00000000
  1 25 130       0.00000000
  1 26 117       0.00000000
  1 26 118       0.00000000
  1 26 119       0.00000000
  1 26 120       0.00000000
  1 26 121       0.00000000
  1 26 122       0.00000000
  1 26 123       0.00000000
  1 26 124       0.00000000
  1 26 125       0.00000000
  1 26 126       0.00000000
  1 26 127       0.00000000
  1 26 128       0.00000000
  1 26 129       0.00000000
  1 26 130       0.00000000
  1 27 116       0.00000000
  1 27 117       0.00000000
  1 27 118       0.00000000
  1 27 119       0.00000000
  1 27 120       0.00000000
  1 27 121       0.00000000
  1 27 122       0.00000000
  1 27 123       0.00000000
  1 27 124       0.00000000
  1 27 125       0.00000000
  1 27 126       0.00000000
  1 27 127       0.00000000
  1 27 128       0.00000000
  1 27 129       0.00000000
  1 27 130       0.00000000
  1 28 114       0.00000000
  1 28 115       0.00000000
  1 28 116       0.00000000
  1 28 117       0.00000000
  1 28 118       0.00000000
  1 28 119       0.00000000
  1 28 120       0.00000000
  1 28 121       0.00000000
  1 28 122       0.00000000
  1 28 123       0.00000000
  1 28 124       0.00000000
  1 28 125       0.00000000
  1 28 126       0.00000000
  1 28 127       0.00000000
  1 28 128       0.00000000
  1 28 129       0.00000000
  1 28 130       0.00000000
  1 28 131       0.00000000
  1 29 113       0.00000000
  1 29 114       0.00000000
  1 29 115       0.00000000
  1 29 116       0.00000000
  1 29 117       0.00000000
  1 29 118       0.00000000
  1 29 119       0.00000000
  1 29 120       0.00000000
  1 29 121       0.00000000
  1 29 122       0.00000000
  1 29 123       0.00000000
  1 29 124       0.00000000
  1 29 125       0.00000000
  1 29 126       0.00000000
  1 29 127       0.00000000
  1 29 128       0.00000000
  1 29 129       0.00000000
  1 29 130       0.00000000
  1 29 131       0.00000000
  1 30 112       0.00000000
  1 30 113       0.00000000
  1 30 114       0.00000000
  1 30 115       0.00000000
  1 30 116       0.00000000
  1 30 117       0.00000000
  1 30 118       0.00000000
  1 30 119       0.00000000
  1 30 120       0.00000000
  1 30 121       0.00000000
  1 30 122       0.00000000
  1 30 123       0.00000000
  1 30 124       0.00000000
  1 30 125       0.00000000
  1 30 126       0.00000000
  1 30 127       0.00000000
  1 30 128       0.00000000
  1 30 129       0.00000000
  1 30 130       0.00000000
  1 31 112       0.00000000
  1 31 113       0.00000000
  1 31 114       0.00000000
  1 31 115       0.00000000
  1 31 116       0.00000000
  1 31 117       0.00000000
  1 31 118       0.00000000
  1 31 119       0.00000000
  1 31 120       0.00000000
  1 31 121       0.00000000
  1 31 122       0.00000000
  1 31 123       0.00000000
  1 31 124       0.00000000
  1 31 125       0.00000000
  1 31 126       0.00000000
  1 31 127       0.00000000
  1 31 128       0.00000000
  1 31 129       0.00000000
  1 31 131       0.00000000
  1 32 112       0.00000000
  1 32 113       0.00000000
  1 32 114       0.00000000
  1 32 115       0.00000000
  1 32 116       0.00000000
  1 32 117       0.00000000
  1 32 118       0.00000000
  1 32 119       0.00000000
  1 32 120       0.00000000
  1 32 121       0.00000000
  1 32 122       0.00000000
  1 32 123       0.00000000
  1 32 124       0.00000000
  1 32 125       0.00000000
  1 32 126       0.00000000
  1 32 127       0.00000000
  1 32 128       0.00000000
  1 33 111       0.00000000
  1 33 112       0.00000000
  1 33 113       0.00000000
  1 33 114       0.00000000
  1 33 115       0.00000000
  1 33 116       0.00000000
  1 33 117       0.00000000
  1 33 118       0.00000000
  1 33 119       0.00000000
  1 33 120       0.00000000
  1 33 121       0.00000000
  1 33 122       0.00000000
  1 33 123       0.00000000
  1 33 124       0.00000000
  1 33 125       0.00000000
  1 33 126       0.00000000
  1 33 127       0.00000000
  1 33 128       0.00000000
  1 33 129       0.00000000
  1 34 110       0.00000000
  1 34 111       0.00000000
  1 34 114       0.00000000
  1 34 115       0.00000000
  1 34 116       0.00000000
  1 34 117       0.00000000
  1 34 118       0.00000000
  1 34 119       0.00000000
  1 34 120       0.00000000
  1 34 121       0.00000000
  1 34 122       0.00000000
  1 34 123       0.00000000
  1 34 124       0.00000000
  1 34 125       0.00000000
  1 34 126       0.00000000
  1 34 127       0.00000000
  1 34 128       0.00000000
  1 34 129       0.00000000
  1 34 130       0.00000000
  1 34 131       0.00000000
  1 35 114       0.00000000
  1 35 115       0.00000000
  1 35 116       0.00000000
  1 35 117       0.00000000
  1 35 118       0.00000000
  1 35 119       0.00000000
  1 35 120       0.00000000
  1 35 121       0.00000000
  1 35 122       0.00000000
  1 35 123       0.00000000
  1 35 124       0.00000000
  1 35 125       0.00000000
  1 35 126       0.00000000
  1 35 128       0.00000000
  1 35 129       0.00000000
  1 35 130       0.00000000
  1 36 115       0.00000000
  1 36 116       0.00000000
  1 36 117       0.00000000
  1 36 118       0.00000000
  1 36 119       0.00000000
  1 36 120       0.00000000
  1 36 121       0.00000000
  1 36 122       0.00000000
  1 36 123       0.00000000
  1 36 124       0.00000000
  1 36 125       0.00000000
  1 36 126       0.00000000
  1 36 128       0.00000000
  1 36 129       0.00000000
  1 36 130       0.00000000
  1 37 115       0.00000000
  1 37 116       0.00000000
  1 37 117       0.00000000
  1 37 118       0.00000000
  1 37 119       0.00000000
  1 37 120       0.00000000
  1 37 121       0.00000000
  1 37 122       0.00000000
  1 37 123       0.00000000
  1 37 124       0.00000000
  1 37 125       0.00000000
  1 37 126       0.00000000
  1 37 127       0.00000000
  1 37 128       0.00000000
  1 37 129       0.00000000
  1 37 130       0.00000000
  1 38 115       0.00000000
  1 38 116       0.00000000
  1 38 117       0.00000000
  1 38 118       0.00000000
  1 38 119       0.00000000
  1 38 120       0.00000000
  1 38 121       0.00000000
  1 38 122       0.00000000
  1 38 123       0.00000000
  1 38 124       0.00000000
  1 38 125       0.00000000
  1 38 126       0.00000000
  1 38 127       0.00000000
  1 38 128       0.00000000
  1 39 115       0.00000000
  1 39 116       0.00000000
  1 39 117       0.00000000
  1 39 118       0.00000000
  1 39 119       0.00000000
  1 39 120       0.00000000
  1 39 121       0.00000000
  1 39 122       0.00000000
  1 39 123       0.00000000
  1 39 124       0.00000000
  1 39 125       0.00000000
  1 39 126       0.00000000
  1 39 127       0.00000000
  1 39 129       0.00000000
  1 40 115       0.00000000
  1 40 116       0.00000000
  1 40 117       0.00000000
  1 40 118       0.00000000
  1 40 119       0.00000000
  1 40 120       0.00000000
  1 40 121       0.00000000
  1 40 122       0.00000000
  1 40 123       0.00000000
  1 40 124       0.00000000
  1 40 125       0.00000000
  1 40 126       0.00000000
  1 40 127       0.00000000
  1 41 116       0.00000000
  1 41 117       0.00000000
  1 41 118       0.00000000
  1 41 119       0.00000000
  1 41 120       0.00000000
  1 41 121       0.00000000
  1 41 122       0.00000000
  1 41 123       0.00000000
  1 41 124       0.00000000
  1 41 125       0.00000000
  1 41 126       0.00000000
  1 41 127       0.00000000
  1 41 128       0.00000000
  1 41 129       0.00000000
  1 42 116       0.00000000
  1 42 117       0.00000000
  1 42 118       0.00000000
  1 42 119       0.00000000
  1 42 120       0.00000000
  1 42 121       0.00000000
  1 42 122       0.00000000
  1 42 123       0.00000000
  1 42 124       0.00000000
  1 42 125       0.00000000
  1 42 126       0.00000000
  1 42 127       0.00000000
  1 42 128       0.00000000
  1 42 129       0.00000000
  1 42 130       0.00000000
  1 43 117       0.00000000
  1 43 118       0.00000000
  1 43 119       0.00000000
  1 43 120       0.00000000
  1 43 121       0.00000000
  1 43 122       0.00000000
  1 43 123       0.00000000
  1 43 124       0.00000000
  1 43 125       0.00000000
  1 43 127       0.00000000
  1 43 128       0.00000000
  1 43 129       0.00000000
  1 44 119       0.00000000
  1 44 120       0.00000000
  1 44 121       0.00000000
  1 44 122       0.00000000
  1 44 129       0.00000000
  1 44 131       0.00000000
  1 79 125       0.00000000
  1 79 128       0.00000000
  1 79 129       0.00000000
  1 80 124       0.00000000
  1 80 125       0.00000000
  1 80 126       0.00000000
  1 80 127       0.00000000
  1 80 128       0.00000000
  1 80 129       0.00000000
  1 81 123       0.00000000
  1 81 124       0.00000000
  1 81 125       0.00000000
  1 81 126       0.00000000
  1 81 127       0.00000000
  1 81 128       0.00000000
  1 81 129       0.00000000
  1 82 123       0.00000000
  1 82 124       0.00000000
  1 82 125       0.00000000
  1 82 126       0.00000000
  1 82 127       0.00000000
  1 82 128       0.00000000
  1 82 129       0.00000000
  1 82 130       0.00000000
  1 83 123       0.00000000
  1 83 124       0.00000000
  1 83 125       0.00000000
  1 83 128       0.00000000
  1 83 129       0.00000000
  1 83 130       0.00000000
  1 84 127       0.00000000
  1 84 128       0.00000000
  1 84 129       0.00000000
  1 84 130       0.00000000
  1 85 127       0.00000000
  1 85 128       0.00000000
  1 85 129       0.00000000
  1 85 130       0.00000000
  1 86 127       0.00000000
  1 86 128       0.00000000
  1 86 129       0.00000000
  1 86 130       0.00000000
  1 87 126       0.00000000
  1 87 127       0.00000000
  1 87 128       0.00000000
  1 87 129       0.00000000
  1 87 130       0.00000000
  1 88 127       0.00000000
  1 88 128       0.00000000
  1 88 129       0.00000000
  1 88 130       0.00000000
  1 89 127       0.00000000
  1 89 128       0.00000000
  1 89 129       0.00000000
  1 89 130       0.00000000
  1 90 128       0.00000000
  1 90 129       0.00000000
  1 90 130       0.00000000
  1 91 128       0.00000000
  1 91 129       0.00000000
END period  1

