BEGIN griddata
  strt
    INTERNAL  FACTOR  1.0
       -49.00000000     -49.00000000     -49.00000000     -49.00000000     -49.00000000     -49.00000000     -49.00000000     -49.00000000     -49.00000000     -49.00000000     -49.00000000     -49.00000000     -49.00000000     -49.00000000     -49.00000000     -49.00000000     -49.00000000     -49.00000000     -49.00000000     -49.00000000
       -49.00000000     -49.00000000     -49.00000000     -49.00000000     -49.00000000     -49.00000000     -49.00000000     -49.00000000     -49.00000000     -49.00000000     -49.00000000     -49.00000000     -49.00000000     -49.00000000     -49.00000000     -49.00000000     -49.00000000     -49.00000000     -49.00000000     -49.00000000
       -49.00000000     -49.00000000     -49.00000000     -49.00000000     -49.00000000     -49.00000000     -49.00000000     -49.00000000     -49.00000000     -49.00000000     -49.00000000     -49.00000000     -49.00000000     -49.00000000     -49.00000000     -49.00000000     -49.00000000     -49.00000000     -49.00000000     -49.00000000
       -49.00000000     -49.00000000     -49.00000000     -49.00000000     -49.00000000     -49.00000000     -49.00000000     -49.00000000     -49.00000000     -49.00000000     -49.00000000     -49.00000000     -49.00000000     -49.00000000     -49.00000000     -49.00000000     -49.00000000     -49.00000000     -49.00000000     -49.00000000
       -49.00000000     -49.00000000     -49.00000000     -49.00000000     -49.00000000     -49.00000000     -49.00000000     -49.00000000     -49.00000000     -49.00000000     -49.00000000     -49.00000000     -49.00000000     -49.00000000     -49.00000000     -49.00000000     -49.00000000     -49.00000000     -49.00000000     -49.00000000
       -49.00000000     -49.00000000     -49.00000000     -49.00000000     -49.00000000     -49.00000000     -49.00000000     -49.00000000     -49.00000000     -49.00000000     -49.00000000     -49.00000000     -49.00000000     -49.00000000     -49.00000000     -49.00000000     -49.00000000     -49.00000000     -49.00000000     -49.00000000
       -49.00000000     -49.00000000     -41.68000031     -44.38999939     -46.54000092     -48.11999893     -49.50000000     -49.50000000     -49.50000000     -48.00999832     -47.93000031     -48.63000107     -49.00000000     -49.00000000     -49.00000000     -49.00000000     -49.00000000     -49.00000000     -49.00000000     -49.00000000
       -49.00000000     -49.00000000    -176.02180481    -179.69129944    -181.76640320    -184.44999695    -187.49349976    -191.49270630    -195.32820129    -200.13949585
       -49.00000000     -49.00000000     -49.00000000     -49.00000000     -49.00000000     -49.00000000     -49.00000000     -49.00000000     -49.00000000     -49.00000000     -49.00000000     -49.00000000     -49.00000000     -49.00000000     -49.00000000     -49.00000000     -49.00000000     -49.00000000     -49.00000000     -49.00000000
       -49.00000000     -49.00000000     -49.00000000     -49.00000000     -49.00000000     -49.00000000     -49.00000000     -49.00000000     -49.00000000     -49.00000000     -49.00000000     -49.00000000     -49.00000000     -49.00000000     -49.00000000     -49.00000000     -49.00000000     -49.00000000     -49.00000000     -49.00000000
       -49.00000000     -49.00000000     -49.00000000     -49.00000000     -49.00000000     -49.00000000     -49.00000000     -49.00000000     -49.00000000     -49.00000000     -49.00000000     -49.00000000     -49.00000000     -49.00000000     -49.00000000     -49.00000000     -49.00000000     -49.00000000     -49.00000000     -49.00000000
       -49.00000000     -49.00000000     -49.00000000     -49.00000000     -49.00000000     -49.00000000     -49.00000000     -49.00000000     -49.00000000     -49.00000000     -49.00000000     -49.00000000     -49.00000000     -49.00000000     -49.00000000     -49.00000000     -49.00000000     -49.00000000     -49.00000000     -49.00000000
       -49.00000000     -49.00000000     -49.00000000     -49.00000000     -49.00000000     -49.00000000     -49.00000000     -49.00000000     -49.00000000     -49.00000000     -49.00000000     -49.00000000     -49.00000000     -49.00000000     -49.00000000     -49.00000000     -49.00000000     -49.00000000     -49.00000000     -49.00000000
       -49.00000000     -49.00000000     -49.00000000     -49.00000000     -49.00000000     -49.00000000     -49.00000000     -49.00000000     -49.00000000     -49.00000000     -49.00000000     -49.00000000     -49.00000000     -49.00000000     -49.00000000     -49.00000000     -49.00000000     -49.00000000     -49.00000000     -49.00000000
       -49.00000000     -49.00000000     -41.84999847     -44.83000183     -46.59999847     -48.41999817     -48.50000000     -49.50000000     -49.50000000     -48.43000031     -48.59999847     -48.63000107     -49.00000000     -49.00000000     -49.00000000     -49.00000000     -49.00000000     -49.00000000     -49.00000000     -49.00000000
       -49.00000000    -173.45710754    -177.05110168    -180.77029419    -182.93519592    -185.36749268    -188.29580688    -192.21499634    -196.02009583    -200.80929565
       -49.00000000     -49.00000000     -49.00000000     -49.00000000     -49.00000000     -49.00000000     -49.00000000     -49.00000000     -49.00000000     -49.00000000     -49.00000000     -49.00000000     -49.00000000     -49.00000000     -49.00000000     -49.00000000     -49.00000000     -49.00000000     -49.00000000     -49.00000000
       -49.00000000     -49.00000000     -49.00000000     -49.00000000     -49.00000000     -49.00000000     -49.00000000     -49.00000000     -49.00000000     -49.00000000     -49.00000000     -49.00000000     -49.00000000     -49.00000000     -49.00000000     -49.00000000     -49.00000000     -49.00000000     -49.00000000     -49.00000000
       -49.00000000     -49.00000000     -49.00000000     -49.00000000     -49.00000000     -49.00000000     -49.00000000     -49.00000000     -49.00000000     -49.00000000     -49.00000000     -49.00000000     -49.00000000     -49.00000000     -49.00000000     -49.00000000     -49.00000000     -49.00000000     -49.00000000     -49.00000000
       -49.00000000     -49.00000000     -49.00000000     -49.00000000     -49.00000000     -49.00000000     -49.00000000     -49.00000000     -49.00000000     -49.00000000     -49.00000000     -49.00000000     -49.00000000     -49.00000000     -49.00000000     -49.00000000     -49.00000000     -49.00000000     -49.00000000     -49.00000000
       -49.00000000     -49.00000000     -49.00000000     -49.00000000     -49.00000000     -49.00000000     -49.00000000     -49.00000000     -49.00000000     -49.00000000     -49.00000000     -49.00000000     -49.00000000     -49.00000000     -49.00000000     -49.00000000     -49.00000000     -49.00000000     -49.00000000     -49.00000000
       -49.00000000     -49.00000000     -49.00000000     -49.00000000     -49.00000000     -49.00000000     -49.00000000     -49.00000000     -49.00000000     -49.00000000     -49.00000000     -49.00000000     -49.00000000     -49.00000000     -49.00000000     -49.00000000     -49.00000000     -49.00000000     -49.00000000     -49.00000000
       -49.00000000     -49.00000000     -41.23999786     -44.81000137     -47.45999908     -48.11000061     -47.95000076     -48.43999863     -47.29999924     -46.84000015     -49.50000000     -48.83000183     -49.00000000     -49.00000000     -49.00000000     -49.00000000     -49.00000000     -49.00000000     -49.00000000     -49.00000000
       -49.00000000    -174.74530029    -178.33700562    -181.76640320    -184.20129395    -186.54330444    -189.40319824    -193.19250488    -196.92149353    -201.69909668
       -49.00000000     -49.00000000     -49.00000000     -49.00000000     -49.00000000     -49.00000000     -49.00000000     -49.00000000     -49.00000000     -49.00000000     -49.00000000     -49.00000000     -49.00000000     -49.00000000     -49.00000000     -49.00000000     -49.00000000     -49.00000000     -49.00000000     -49.00000000
       -49.00000000     -49.00000000     -49.00000000     -49.00000000     -49.00000000     -49.00000000     -49.00000000     -49.00000000     -49.00000000     -49.00000000     -49.00000000     -49.00000000     -49.00000000     -49.00000000     -49.00000000     -49.00000000     -49.00000000     -49.00000000     -49.00000000     -49.00000000
       -49.00000000     -49.00000000     -49.00000000     -49.00000000     -49.00000000     -49.00000000     -49.00000000     -49.00000000     -49.00000000     -49.00000000     -49.00000000     -49.00000000     -49.00000000     -49.00000000     -49.00000000     -49.00000000     -49.00000000     -49.00000000     -49.00000000     -49.00000000
       -49.00000000     -49.00000000     -49.00000000     -49.00000000     -49.00000000     -49.00000000     -49.00000000     -49.00000000     -49.00000000     -49.00000000     -49.00000000     -49.00000000     -49.00000000     -49.00000000     -49.00000000     -49.00000000     -49.00000000     -49.00000000     -49.00000000     -49.00000000
       -49.00000000     -49.00000000     -49.00000000     -49.00000000     -49.00000000     -49.00000000     -49.00000000     -49.00000000     -49.00000000     -49.00000000     -49.00000000     -49.00000000     -49.00000000     -49.00000000     -49.00000000     -49.00000000     -49.00000000     -49.00000000     -49.00000000     -49.00000000
       -49.00000000     -49.00000000     -49.00000000     -49.00000000     -49.00000000     -49.00000000     -49.00000000     -49.00000000     -49.00000000     -49.00000000     -49.00000000     -49.00000000     -49.00000000     -49.00000000     -49.00000000     -49.00000000     -49.00000000     -49.00000000     -49.00000000     -49.00000000
       -49.00000000     -49.00000000     -42.18000031     -45.40000153     -46.66999817     -46.11999893     -27.79000092     -26.63999939    -147.15089417    -141.34750366     -24.37999916     -46.74000168     -49.00000000     -49.00000000     -49.00000000     -49.00000000     -49.00000000     -49.00000000     -49.00000000     -49.00000000
       -49.00000000    -176.48680115    -179.94309998    -183.06250000    -185.66009521    -188.09150696    -190.86689758    -194.52749634    -198.16209412    -202.87010193
       -49.00000000     -49.00000000     -49.00000000     -49.00000000     -49.00000000     -49.00000000     -49.00000000     -49.00000000     -49.00000000     -49.00000000     -49.00000000     -49.00000000     -49.00000000     -49.00000000     -49.00000000     -49.00000000     -49.00000000     -49.00000000     -49.00000000     -49.00000000
       -49.00000000     -49.00000000     -49.00000000     -49.00000000     -49.00000000     -49.00000000     -49.00000000     -49.00000000     -49.00000000     -49.00000000     -49.00000000     -49.00000000     -49.00000000     -49.00000000     -49.00000000     -49.00000000     -49.00000000     -49.00000000     -49.00000000     -49.00000000
       -49.00000000     -49.00000000     -49.00000000     -49.00000000     -49.00000000     -49.00000000     -49.00000000     -49.00000000     -49.00000000     -49.00000000     -49.00000000     -49.00000000     -49.00000000     -49.00000000     -49.00000000     -49.00000000     -49.00000000     -49.00000000     -49.00000000     -49.00000000
       -49.00000000     -49.00000000     -49.00000000     -49.00000000     -49.00000000     -49.00000000     -49.00000000     -49.00000000     -49.00000000     -49.00000000     -49.00000000     -49.00000000     -49.00000000     -49.00000000     -49.00000000     -49.00000000     -49.00000000     -49.00000000     -49.00000000     -49.00000000
       -49.00000000     -49.00000000     -49.00000000     -49.00000000     -49.00000000     -49.00000000     -49.00000000     -49.00000000     -49.00000000     -49.00000000     -49.00000000     -49.00000000     -49.00000000     -49.00000000     -49.00000000     -49.00000000     -49.00000000     -49.00000000     -49.00000000     -49.00000000
       -49.00000000     -49.00000000     -49.00000000     -49.00000000     -49.00000000     -49.00000000     -49.00000000     -49.00000000     -49.00000000     -49.00000000     -49.00000000     -49.00000000     -49.00000000     -49.00000000     -49.00000000     -49.00000000     -49.00000000     -49.00000000     -49.00000000     -49.00000000
       -49.00000000     -49.00000000     -43.93000031     -46.45999908     -47.97000122     -32.12999725     -98.75006866    -142.35479736    -136.53430176    -135.09950256    -135.13059998    -137.45649719     -47.36000061     -49.00000000     -49.00000000     -49.00000000     -49.00000000     -49.00000000     -49.00000000     -49.00000000
      -174.86180115    -178.46420288    -182.09910583    -185.29249573    -187.52479553    -190.38980103    -193.08650208    -196.64109802    -200.12210083    -204.62730408
       -49.00000000     -49.00000000     -49.00000000     -49.00000000     -49.00000000     -49.00000000     -49.00000000     -49.00000000     -49.00000000     -49.00000000     -49.00000000     -49.00000000     -49.00000000     -49.00000000     -49.00000000     -49.00000000     -49.00000000     -49.00000000     -49.00000000     -49.00000000
       -49.00000000     -49.00000000     -49.00000000     -49.00000000     -49.00000000     -49.00000000     -49.00000000     -49.00000000     -49.00000000     -49.00000000     -49.00000000     -49.00000000     -49.00000000     -49.00000000     -49.00000000     -49.00000000     -49.00000000     -49.00000000     -49.00000000     -49.00000000
       -49.00000000     -49.00000000     -49.00000000     -49.00000000     -49.00000000     -49.00000000     -49.00000000     -49.00000000     -49.00000000     -49.00000000     -49.00000000     -49.00000000     -49.00000000     -49.00000000     -49.00000000     -49.00000000     -49.00000000     -49.00000000     -49.00000000     -49.00000000
       -49.00000000     -49.00000000     -49.00000000     -49.00000000     -49.00000000     -49.00000000     -49.00000000     -49.00000000     -49.00000000     -49.00000000     -49.00000000     -49.00000000     -49.00000000     -49.00000000     -49.00000000     -49.00000000     -49.00000000     -49.00000000     -49.00000000     -49.00000000
       -49.00000000     -49.00000000     -49.00000000     -49.00000000     -49.00000000     -49.00000000     -49.00000000     -49.00000000     -49.00000000     -49.00000000     -49.00000000     -49.00000000     -49.00000000     -49.00000000     -49.00000000     -49.00000000     -49.00000000     -49.00000000     -49.00000000     -49.00000000
       -49.00000000     -49.00000000     -49.00000000     -49.00000000     -49.00000000     -49.00000000     -49.00000000     -49.00000000     -49.00000000     -49.00000000     -49.00000000     -49.00000000     -49.00000000     -49.00000000     -49.00000000     -49.00000000     -49.00000000     -49.00000000     -49.00000000     -49.00000000
       -49.00000000     -49.00000000     -42.73999786     -47.13000107     -48.88999939     -48.93000031     -30.94000053    -133.48089600    -131.97169495    -131.95829773    -134.50799561    -137.85090637    -142.32519531    -146.28810120    -150.92889404     -48.31999969     -49.00000000     -49.00000000     -49.00000000    -172.05549622
      -176.55079651    -180.34700012    -184.17820740    -187.66760254    -189.86549377    -193.03520203    -195.73609924    -199.30909729    -202.59010315    -206.73689270
       -49.00000000     -49.00000000     -49.00000000     -49.00000000     -49.00000000     -49.00000000     -49.00000000     -49.00000000     -49.00000000     -49.00000000     -49.00000000     -49.00000000     -49.00000000     -49.00000000     -49.00000000     -49.00000000     -49.00000000     -49.00000000     -49.00000000     -49.00000000
       -49.00000000     -49.00000000     -49.00000000     -49.00000000     -49.00000000     -49.00000000     -49.00000000     -49.00000000     -49.00000000     -49.00000000     -49.00000000     -49.00000000     -49.00000000     -49.00000000     -49.00000000     -49.00000000     -49.00000000     -49.00000000     -49.00000000     -49.00000000
       -49.00000000     -49.00000000     -49.00000000     -49.00000000     -49.00000000     -49.00000000     -49.00000000     -49.00000000     -49.00000000     -49.00000000     -49.00000000     -49.00000000     -49.00000000     -49.00000000     -49.00000000     -49.00000000     -49.00000000     -49.00000000     -49.00000000     -49.00000000
       -49.00000000     -49.00000000     -49.00000000     -49.00000000     -49.00000000     -49.00000000     -49.00000000     -49.00000000     -49.00000000     -49.00000000     -49.00000000     -49.00000000     -49.00000000     -49.00000000     -49.00000000     -49.00000000     -49.00000000     -49.00000000     -49.00000000     -49.00000000
       -49.00000000     -49.00000000     -49.00000000     -49.00000000     -49.00000000     -49.00000000     -49.00000000     -49.00000000     -49.00000000     -49.00000000     -49.00000000     -49.00000000     -49.00000000     -49.00000000     -49.00000000     -49.00000000     -49.00000000     -49.00000000     -49.00000000     -49.00000000
       -49.00000000     -49.00000000     -49.00000000     -49.00000000     -49.00000000     -49.00000000     -49.00000000     -49.00000000     -49.00000000     -49.00000000     -49.00000000     -49.00000000     -49.00000000     -49.00000000     -49.00000000     -49.00000000     -49.00000000     -49.00000000     -49.00000000     -49.00000000
       -49.00000000     -49.00000000     -42.48999786     -46.75000000     -48.93000031     -48.93000031     -27.43000031    -128.92329407    -128.89990234    -131.02609253    -134.87719727    -138.68609619    -143.33560181    -147.34620667    -152.05020142    -156.09849548     -49.00000000    -164.89239502    -169.61970520    -173.65730286
      -178.35870361    -182.34199524    -186.40089417    -190.25169373    -193.09500122    -196.47680664    -198.93170166    -202.35690308    -205.48620605    -209.56849670
       -49.00000000     -49.00000000     -49.00000000     -49.00000000     -49.00000000     -49.00000000     -49.00000000     -49.00000000     -49.00000000     -49.00000000     -49.00000000     -49.00000000     -49.00000000     -49.00000000     -49.00000000     -49.00000000     -49.00000000     -49.00000000     -49.00000000     -49.00000000
       -49.00000000     -49.00000000     -49.00000000     -49.00000000     -49.00000000     -49.00000000     -49.00000000     -49.00000000     -49.00000000     -49.00000000     -49.00000000     -49.00000000     -49.00000000     -49.00000000     -49.00000000     -49.00000000     -49.00000000     -49.00000000     -49.00000000     -49.00000000
       -49.00000000     -49.00000000     -49.00000000     -49.00000000     -49.00000000     -49.00000000     -49.00000000     -49.00000000     -49.00000000     -49.00000000     -49.00000000     -49.00000000     -49.00000000     -49.00000000     -49.00000000     -49.00000000     -49.00000000     -49.00000000     -49.00000000     -49.00000000
       -49.00000000     -49.00000000     -49.00000000     -49.00000000     -49.00000000     -49.00000000     -49.00000000     -49.00000000     -49.00000000     -49.00000000     -49.00000000     -49.00000000     -49.00000000     -49.00000000     -49.00000000     -49.00000000     -49.00000000     -49.00000000     -49.00000000     -49.00000000
       -49.00000000     -49.00000000     -49.00000000     -49.00000000     -49.00000000     -49.00000000     -49.00000000     -49.00000000     -49.00000000     -49.00000000     -49.00000000     -49.00000000     -49.00000000     -49.00000000     -49.00000000     -49.00000000     -49.00000000     -49.00000000     -49.00000000     -49.00000000
       -49.00000000     -49.00000000     -49.00000000     -49.00000000     -49.00000000     -49.00000000     -49.00000000     -49.00000000     -49.00000000     -49.00000000     -49.00000000     -49.00000000     -49.00000000     -49.00000000     -49.00000000     -49.00000000     -49.00000000     -49.00000000     -49.00000000     -49.00000000
       -49.00000000     -49.00000000     -44.08000183     -46.36999893     -48.93000031     -48.93000031     -49.04999924    -125.36769867    -128.07119751    -131.37469482    -135.82380676    -139.82710266    -144.53700256    -148.60600281    -153.38769531    -157.51269531    -162.35159302    -166.51750183    -171.39559937    -175.59739685
      -180.54890442    -184.74479675    -189.10310364    -193.43829346    -197.22380066    -202.20710754    -203.40020752    -206.94830322    -210.29490662    -214.71899414
       -49.00000000     -49.00000000     -49.00000000     -49.00000000     -49.00000000     -49.00000000     -49.00000000     -49.00000000     -49.00000000     -49.00000000     -49.00000000     -49.00000000     -49.00000000     -49.00000000     -49.00000000     -49.00000000     -49.00000000     -49.00000000     -49.00000000     -49.00000000
       -49.00000000     -49.00000000     -49.00000000     -49.00000000     -49.00000000     -49.00000000     -49.00000000     -49.00000000     -49.00000000     -49.00000000     -49.00000000     -49.00000000     -49.00000000     -49.00000000     -49.00000000     -49.00000000     -49.00000000     -49.00000000     -49.00000000     -49.00000000
       -49.00000000     -49.00000000     -49.00000000     -49.00000000     -49.00000000     -49.00000000     -49.00000000     -49.00000000     -49.00000000     -49.00000000     -49.00000000     -49.00000000     -49.00000000     -49.00000000     -49.00000000     -49.00000000     -49.00000000     -49.00000000     -49.00000000     -49.00000000
       -49.00000000     -49.00000000     -49.00000000     -49.00000000     -49.00000000     -49.00000000     -49.00000000     -49.00000000     -49.00000000     -49.00000000     -49.00000000     -49.00000000     -49.00000000     -49.00000000     -49.00000000     -49.00000000     -49.00000000     -49.00000000     -49.00000000     -49.00000000
       -49.00000000     -49.00000000     -49.00000000     -49.00000000     -49.00000000     -49.00000000     -49.00000000     -49.00000000     -49.00000000     -49.00000000     -49.00000000     -49.00000000     -49.00000000     -49.00000000     -49.00000000     -49.00000000     -49.00000000     -49.00000000     -49.00000000     -49.00000000
       -49.00000000     -49.00000000     -49.00000000     -49.00000000     -49.00000000     -49.00000000     -49.00000000     -49.00000000     -49.00000000     -49.00000000     -49.00000000     -49.00000000     -49.00000000     -49.00000000     -49.00000000     -49.00000000     -49.00000000     -49.00000000     -49.00000000     -49.00000000
       -49.00000000     -49.00000000     -46.09000015     -48.93000031     -48.93000031     -48.93000031     -48.93000031     -27.32999992    -128.36630249    -132.13729858    -136.81140137    -140.85760498    -145.62420654    -149.74830627    -154.60339355    -158.80099487    -163.73880005    -168.00610352    -173.03169250    -177.39770508
      -182.55369568    -186.94779968    -191.60910034    -196.44380188    -201.22459412    -207.45880127    -208.10420227    -212.06939697    -215.92430115    -220.91239929
       -49.00000000     -49.00000000     -49.00000000     -49.00000000     -49.00000000     -49.00000000     -49.00000000     -49.00000000     -49.00000000     -49.00000000     -49.00000000     -49.00000000     -49.00000000     -49.00000000     -49.00000000     -49.00000000     -49.00000000     -49.00000000     -49.00000000     -49.00000000
       -49.00000000     -49.00000000     -49.00000000     -49.00000000     -49.00000000     -49.00000000     -49.00000000     -49.00000000     -49.00000000     -49.00000000     -49.00000000     -49.00000000     -49.00000000     -49.00000000     -49.00000000     -49.00000000     -49.00000000     -49.00000000     -49.00000000     -49.00000000
       -49.00000000     -49.00000000     -49.00000000     -49.00000000     -49.00000000     -49.00000000     -49.00000000     -49.00000000     -49.00000000     -49.00000000     -49.00000000     -49.00000000     -49.00000000     -49.00000000     -49.00000000     -49.00000000     -49.00000000     -49.00000000     -49.00000000     -49.00000000
       -49.00000000     -49.00000000     -49.00000000     -49.00000000     -49.00000000     -49.00000000     -49.00000000     -49.00000000     -49.00000000     -49.00000000     -49.00000000     -49.00000000     -49.00000000     -49.00000000     -49.00000000     -49.00000000     -49.00000000     -49.00000000     -49.00000000     -49.00000000
       -49.00000000     -49.00000000     -49.00000000     -49.00000000     -49.00000000     -49.00000000     -49.00000000     -49.00000000     -49.00000000     -49.00000000     -49.00000000     -49.00000000     -49.00000000     -49.00000000     -49.00000000     -49.00000000     -49.00000000     -49.00000000     -49.00000000     -49.00000000
       -49.00000000     -49.00000000     -49.00000000     -49.00000000     -49.00000000     -49.00000000     -49.00000000     -49.00000000     -49.00000000     -49.00000000     -49.00000000     -49.00000000     -49.00000000     -49.00000000     -49.00000000     -49.00000000     -49.00000000     -49.00000000     -49.00000000     -49.00000000
       -49.00000000     -49.00000000     -43.73999786     -48.93000031     -48.93000031     -48.93000031     -48.93000031     -37.59999847    -129.09779358    -133.09959412    -137.82060242    -141.91220093    -146.73890686    -150.92190552    -155.85609436    -160.13250732    -165.17880249    -169.55799866    -174.74589539    -179.28450012
      -184.64179993    -189.24769592    -194.63800049    -199.67880249    -205.45539856    -212.73019409    -213.55540466    -217.88389587    -222.03100586    -227.33839417
       -49.00000000     -49.00000000     -49.00000000     -49.00000000     -49.00000000     -49.00000000     -49.00000000     -49.00000000     -49.00000000     -49.00000000     -49.00000000     -49.00000000     -49.00000000     -49.00000000     -49.00000000     -49.00000000     -49.00000000     -49.00000000     -49.00000000     -49.00000000
       -49.00000000     -49.00000000     -49.00000000     -49.00000000     -49.00000000     -49.00000000     -49.00000000     -49.00000000     -49.00000000     -49.00000000     -49.00000000     -49.00000000     -49.00000000     -49.00000000     -49.00000000     -49.00000000     -49.00000000     -49.00000000     -49.00000000     -49.00000000
       -49.00000000     -49.00000000     -49.00000000     -49.00000000     -49.00000000     -49.00000000     -49.00000000     -49.00000000     -49.00000000     -49.00000000     -49.00000000     -49.00000000     -49.00000000     -49.00000000     -49.00000000     -49.00000000     -49.00000000     -49.00000000     -49.00000000     -49.00000000
       -49.00000000     -49.00000000     -49.00000000     -49.00000000     -49.00000000     -49.00000000     -49.00000000     -49.00000000     -49.00000000     -49.00000000     -49.00000000     -49.00000000     -49.00000000     -49.00000000     -49.00000000     -49.00000000     -49.00000000     -49.00000000     -49.00000000     -49.00000000
       -49.00000000     -49.00000000     -49.00000000     -49.00000000     -49.00000000     -49.00000000     -49.00000000     -49.00000000     -49.00000000     -49.00000000     -49.00000000     -49.00000000     -49.00000000     -49.00000000     -49.00000000     -49.00000000     -49.00000000     -49.00000000     -49.00000000     -49.00000000
       -49.00000000     -49.00000000     -49.00000000     -49.00000000     -49.00000000     -49.00000000     -49.00000000     -49.00000000     -49.00000000     -49.00000000     -49.00000000     -49.00000000     -49.00000000     -49.00000000     -49.00000000     -49.00000000     -49.00000000     -49.00000000     -49.00000000     -49.00000000
       -49.00000000     -49.00000000     -42.29000092     -48.09000015     -48.93000031     -48.93000031     -48.93000031     -39.61000061     -12.20999908     -28.12000084     -32.05999756    -143.14030457    -148.04060364    -152.29589844    -157.32769775    -161.70179749    -166.88389587    -171.40510559    -176.80169678    -181.53179932
      -187.12910461    -192.00900269    -197.85800171    -203.69990540    -210.49169922    -218.65870667    -220.10090637    -224.75509644    -229.09599304    -234.53379822
       -49.00000000     -49.00000000     -49.00000000     -49.00000000     -49.00000000     -49.00000000     -49.00000000     -49.00000000     -49.00000000     -49.00000000     -49.00000000     -49.00000000     -49.00000000     -49.00000000     -49.00000000     -49.00000000     -49.00000000     -49.00000000     -49.00000000     -49.00000000
       -49.00000000     -49.00000000     -49.00000000     -49.00000000     -49.00000000     -49.00000000     -49.00000000     -49.00000000     -49.00000000     -49.00000000     -49.00000000     -49.00000000     -49.00000000     -49.00000000     -49.00000000     -49.00000000     -49.00000000     -49.00000000     -49.00000000     -49.00000000
       -49.00000000     -49.00000000     -49.00000000     -49.00000000     -49.00000000     -49.00000000     -49.00000000     -49.00000000     -49.00000000     -49.00000000     -49.00000000     -49.00000000     -49.00000000     -49.00000000     -49.00000000     -49.00000000     -49.00000000     -49.00000000     -49.00000000     -49.00000000
       -49.00000000     -49.00000000     -49.00000000     -49.00000000     -49.00000000     -49.00000000     -49.00000000     -49.00000000     -49.00000000     -49.00000000     -49.00000000     -49.00000000     -49.00000000     -49.00000000     -49.00000000     -49.00000000     -49.00000000     -49.00000000     -49.00000000     -49.00000000