BEGIN griddata
  strt
    INTERNAL  FACTOR  1.0
       -49.00000000     -49.00000000     -49.00000000     -49.00000000     -49.00000000     -49.00000000     -49.00000000     -49.00000000     -49.00000000     -49.00000000     -49.00000000     -49.00000000     -49.00000000     -49.00000000     -49.00000000     -49.00000000     -49.00000000     -49.00000000     -49.00000000     -49.00000000
       -49.00000000     -49.00000000     -49.00000000     -49.00000000     -49.00000000     -49.00000000     -49.00000000     -49.00000000     -49.00000000     -49.00000000     -49.00000000     -49.00000000     -49.00000000     -49.00000000     -49.00000000     -49.00000000     -49.00000000     -49.00000000     -49.00000000     -49.00000000
       -49.00000000     -49.00000000     -49.00000000     -49.00000000     -49.00000000     -49.00000000     -49.00000000     -49.00000000     -49.00000000     -49.00000000     -49.00000000     -49.00000000     -49.00000000     -49.00000000     -49.00000000     -49.00000000     -49.00000000     -49.00000000     -49.00000000     -49.00000000
       -49.00000000     -49.00000000     -49.00000000     -49.00000000     -49.00000000     -49.00000000     -49.00000000     -49.00000000     -49.00000000     -49.00000000     -49.00000000     -49.00000000     -49.00000000     -49.00000000     -49.00000000     -49.00000000     -49.00000000     -49.00000000     -49.00000000     -49.00000000
       -49.00000000     -49.00000000     -49.00000000     -49.00000000     -49.00000000     -49.00000000     -49.00000000     -49.00000000     -49.00000000     -49.00000000     -49.00000000     -49.00000000     -49.00000000     -49.00000000     -49.00000000     -49.00000000     -49.00000000     -49.00000000     -49.00000000     -49.00000000
       -49.00000000     -49.00000000     -49.00000000     -49.00000000     -49.00000000     -49.00000000     -49.00000000     -49.00000000     -49.00000000     -49.00000000     -49.00000000     -49.00000000     -49.00000000     -49.00000000     -49.00000000     -49.00000000     -49.00000000     -49.00000000     -49.00000000     -49.00000000
       -49.00000000     -49.00000000     -49.00000000     -49.00000000     -49.00000000     -49.00000000     -49.00000000     -49.00000000     -49.00000000     -49.00000000     -49.00000000     -49.00000000     -49.00000000     -49.00000000     -49.00000000     -49.00000000     -49.00000000     -49.00000000     -49.00000000     -49.00000000
       -49.00000000     -49.00000000     -49.00000000     -49.00000000     -49.00000000     -49.00000000     -49.00000000     -49.00000000     -49.00000000     -49.00000000     -49.00000000     -49.00000000     -49.00000000     -49.00000000     -49.00000000     -49.00000000     -49.00000000     -49.00000000     -49.00000000     -49.00000000
       -49.00000000     -49.00000000     -49.00000000     -49.00000000     -49.00000000     -49.00000000     -49.00000000     -49.00000000     -49.00000000     -49.00000000     -49.00000000     -49.00000000     -49.00000000     -49.00000000     -49.00000000     -49.00000000     -49.00000000     -49.00000000     -49.00000000     -49.00000000
       -49.00000000     -49.00000000     -49.00000000     -49.00000000     -49.00000000     -49.00000000     -49.00000000     -49.00000000     -49.00000000     -49.00000000     -49.00000000     -49.00000000     -49.00000000     -49.00000000     -49.00000000     -49.00000000     -49.00000000     -49.00000000     -49.00000000     -49.00000000
       -49.00000000     -49.00000000     -49.00000000     -49.00000000     -43.27000046     -44.77000046     -45.41999817     -47.02000046     -47.95999908     -49.50000000     -49.50000000     -49.50000000     -49.50000000     -49.50000000     -48.88000107     -48.20999908     -47.95000076     -47.72999954     -48.61999893     -48.61999893
       -47.75000000     -49.00000000     -49.00000000     -49.00000000     -49.00000000     -49.00000000     -49.00000000     -49.00000000     -49.00000000     -49.00000000     -49.00000000     -49.00000000     -49.00000000     -49.00000000     -49.00000000     -49.00000000    -173.72109985    -175.91319275    -178.08760071    -180.01139832
      -181.42329407    -182.36259460    -184.34820557    -186.31370544    -187.97019958    -190.26539612    -192.57650757    -195.25000000    -197.92610168    -200.83279419
       -49.00000000     -49.00000000     -49.00000000     -49.00000000     -49.00000000     -49.00000000     -49.00000000     -49.00000000     -49.00000000     -49.00000000     -49.00000000     -49.00000000     -49.00000000     -49.00000000     -49.00000000     -49.00000000     -49.00000000     -49.00000000     -49.00000000     -49.00000000
       -49.00000000     -49.00000000     -49.00000000     -49.00000000     -49.00000000     -49.00000000     -49.00000000     -49.00000000     -49.00000000     -49.00000000     -49.00000000     -49.00000000     -49.00000000     -49.00000000     -49.00000000     -49.00000000     -49.00000000     -49.00000000     -49.00000000     -49.00000000
       -49.00000000     -49.00000000     -49.00000000     -49.00000000     -49.00000000     -49.00000000     -49.00000000     -49.00000000     -49.00000000     -49.00000000     -49.00000000     -49.00000000     -49.00000000     -49.00000000     -49.00000000     -49.00000000     -49.00000000     -49.00000000     -49.00000000     -49.00000000
       -49.00000000     -49.00000000     -49.00000000     -49.00000000     -49.00000000     -49.00000000     -49.00000000     -49.00000000     -49.00000000     -49.00000000     -49.00000000     -49.00000000     -49.00000000     -49.00000000     -49.00000000     -49.00000000     -49.00000000     -49.00000000     -49.00000000     -49.00000000
       -49.00000000     -49.00000000     -49.00000000     -49.00000000     -49.00000000     -49.00000000     -49.00000000     -49.00000000     -49.00000000     -49.00000000     -49.00000000     -49.00000000     -49.00000000     -49.00000000     -49.00000000     -49.00000000     -49.00000000     -49.00000000     -49.00000000     -49.00000000
       -49.00000000     -49.00000000     -49.00000000     -49.00000000     -49.00000000     -49.00000000     -49.00000000     -49.00000000     -49.00000000     -49.00000000     -49.00000000     -49.00000000     -49.00000000     -49.00000000     -49.00000000     -49.00000000     -49.00000000     -49.00000000     -49.00000000     -49.00000000
       -49.00000000     -49.00000000     -49.00000000     -49.00000000     -49.00000000     -49.00000000     -49.00000000     -49.00000000     -49.00000000     -49.00000000     -49.00000000     -49.00000000     -49.00000000     -49.00000000     -49.00000000     -49.00000000     -49.00000000     -49.00000000     -49.00000000     -49.00000000
       -49.00000000     -49.00000000     -49.00000000     -49.00000000     -49.00000000     -49.00000000     -49.00000000     -49.00000000     -49.00000000     -49.00000000     -49.00000000     -49.00000000     -49.00000000     -49.00000000     -49.00000000     -49.00000000     -49.00000000     -49.00000000     -49.00000000     -49.00000000
       -49.00000000     -49.00000000     -49.00000000     -49.00000000     -49.00000000     -49.00000000     -49.00000000     -49.00000000     -49.00000000     -49.00000000     -49.00000000     -49.00000000     -49.00000000     -49.00000000     -49.00000000     -49.00000000     -49.00000000     -49.00000000     -49.00000000     -49.00000000
       -49.00000000     -49.00000000     -49.00000000     -49.00000000     -49.00000000     -49.00000000     -49.00000000     -49.00000000     -49.00000000     -49.00000000     -49.00000000     -49.00000000     -49.00000000     -49.00000000     -49.00000000     -49.00000000     -49.00000000     -49.00000000     -49.00000000     -49.00000000
       -49.00000000     -49.00000000     -49.00000000     -49.00000000     -42.75000000     -44.40999985     -45.15999985     -46.81000137     -46.79000092     -47.66999817     -49.50000000     -49.50000000     -49.50000000     -49.50000000     -49.50000000     -48.63999939     -47.50000000     -47.50000000     -48.68999863     -48.72999954
       -48.06000137     -49.00000000     -49.00000000     -49.00000000     -49.00000000     -49.00000000     -49.00000000     -49.00000000     -49.00000000     -49.00000000     -49.00000000     -49.00000000     -49.00000000     -49.00000000     -49.00000000     -49.00000000    -174.22709656    -176.35560608    -178.57620239    -180.54040527
      -181.96119690    -182.83880615    -184.78340149    -186.74369812    -188.35760498    -190.62440491    -192.95350647    -195.57859802    -198.25579834    -201.16990662
       -49.00000000     -49.00000000     -49.00000000     -49.00000000     -49.00000000     -49.00000000     -49.00000000     -49.00000000     -49.00000000     -49.00000000     -49.00000000     -49.00000000     -49.00000000     -49.00000000     -49.00000000     -49.00000000     -49.00000000     -49.00000000     -49.00000000     -49.00000000
       -49.00000000     -49.00000000     -49.00000000     -49.00000000     -49.00000000     -49.00000000     -49.00000000     -49.00000000     -49.00000000     -49.00000000     -49.00000000     -49.00000000     -49.00000000     -49.00000000     -49.00000000     -49.00000000     -49.00000000     -49.00000000     -49.00000000     -49.00000000
       -49.00000000     -49.00000000     -49.00000000     -49.00000000     -49.00000000     -49.00000000     -49.00000000     -49.00000000     -49.00000000     -49.00000000     -49.00000000     -49.00000000     -49.00000000     -49.00000000     -49.00000000     -49.00000000     -49.00000000     -49.00000000     -49.00000000     -49.00000000
       -49.00000000     -49.00000000     -49.00000000     -49.00000000     -49.00000000     -49.00000000     -49.00000000     -49.00000000     -49.00000000     -49.00000000     -49.00000000     -49.00000000     -49.00000000     -49.00000000     -49.00000000     -49.00000000     -49.00000000     -49.00000000     -49.00000000     -49.00000000
       -49.00000000     -49.00000000     -49.00000000     -49.00000000     -49.00000000     -49.00000000     -49.00000000     -49.00000000     -49.00000000     -49.00000000     -49.00000000     -49.00000000     -49.00000000     -49.00000000     -49.00000000     -49.00000000     -49.00000000     -49.00000000     -49.00000000     -49.00000000
       -49.00000000     -49.00000000     -49.00000000     -49.00000000     -49.00000000     -49.00000000     -49.00000000     -49.00000000     -49.00000000     -49.00000000     -49.00000000     -49.00000000     -49.00000000     -49.00000000     -49.00000000     -49.00000000     -49.00000000     -49.00000000     -49.00000000     -49.00000000
       -49.00000000     -49.00000000     -49.00000000     -49.00000000     -49.00000000     -49.00000000     -49.00000000     -49.00000000     -49.00000000     -49.00000000     -49.00000000     -49.00000000     -49.00000000     -49.00000000     -49.00000000     -49.00000000     -49.00000000     -49.00000000     -49.00000000     -49.00000000
       -49.00000000     -49.00000000     -49.00000000     -49.00000000     -49.00000000     -49.00000000     -49.00000000     -49.00000000     -49.00000000     -49.00000000     -49.00000000     -49.00000000     -49.00000000     -49.00000000     -49.00000000     -49.00000000     -49.00000000     -49.00000000     -49.00000000     -49.00000000
       -49.00000000     -49.00000000     -49.00000000     -49.00000000     -49.00000000     -49.00000000     -49.00000000     -49.00000000     -49.00000000     -49.00000000     -49.00000000     -49.00000000     -49.00000000     -49.00000000     -49.00000000     -49.00000000     -49.00000000     -49.00000000     -49.00000000     -49.00000000
       -49.00000000     -49.00000000     -49.00000000     -49.00000000     -49.00000000     -49.00000000     -49.00000000     -49.00000000     -49.00000000     -49.00000000     -49.00000000     -49.00000000     -49.00000000     -49.00000000     -49.00000000     -49.00000000     -49.00000000     -49.00000000     -49.00000000     -49.00000000
       -49.00000000     -49.00000000     -49.00000000     -49.00000000     -42.43000031     -44.47000122     -45.59000015     -46.59999847     -47.13000107     -48.22999954     -48.81999969     -49.50000000     -49.50000000     -49.50000000     -49.16999817     -47.47999954     -48.22999954     -48.59999847     -48.72999954     -48.77000046
       -49.00000000     -49.00000000     -49.00000000     -49.00000000     -49.00000000     -49.00000000     -49.00000000     -49.00000000     -49.00000000     -49.00000000     -49.00000000     -49.00000000     -49.00000000     -49.00000000     -49.00000000    -172.93780518    -174.99510193    -177.05110168    -179.19880676    -181.24490356
      -182.73519897    -183.44250488    -185.36749268    -187.25120544    -188.86349487    -191.10710144    -193.32519531    -196.02009583    -198.68319702    -201.60760498
       -49.00000000     -49.00000000     -49.00000000     -49.00000000     -49.00000000     -49.00000000     -49.00000000     -49.00000000     -49.00000000     -49.00000000     -49.00000000     -49.00000000     -49.00000000     -49.00000000     -49.00000000     -49.00000000     -49.00000000     -49.00000000     -49.00000000     -49.00000000
       -49.00000000     -49.00000000     -49.00000000     -49.00000000     -49.00000000     -49.00000000     -49.00000000     -49.00000000     -49.00000000     -49.00000000     -49.00000000     -49.00000000     -49.00000000     -49.00000000     -49.00000000     -49.00000000     -49.00000000     -49.00000000     -49.00000000     -49.00000000
       -49.00000000     -49.00000000     -49.00000000     -49.00000000     -49.00000000     -49.00000000     -49.00000000     -49.00000000     -49.00000000     -49.00000000     -49.00000000     -49.00000000     -49.00000000     -49.00000000     -49.00000000     -49.00000000     -49.00000000     -49.00000000     -49.00000000     -49.00000000
       -49.00000000     -49.00000000     -49.00000000     -49.00000000     -49.00000000     -49.00000000     -49.00000000     -49.00000000     -49.00000000     -49.00000000     -49.00000000     -49.00000000     -49.00000000     -49.00000000     -49.00000000     -49.00000000     -49.00000000     -49.00000000     -49.00000000     -49.00000000
       -49.00000000     -49.00000000     -49.00000000     -49.00000000     -49.00000000     -49.00000000     -49.00000000     -49.00000000     -49.00000000     -49.00000000     -49.00000000     -49.00000000     -49.00000000     -49.00000000     -49.00000000     -49.00000000     -49.00000000     -49.00000000     -49.00000000     -49.00000000
       -49.00000000     -49.00000000     -49.00000000     -49.00000000     -49.00000000     -49.00000000     -49.00000000     -49.00000000     -49.00000000     -49.00000000     -49.00000000     -49.00000000     -49.00000000     -49.00000000     -49.00000000     -49.00000000     -49.00000000     -49.00000000     -49.00000000     -49.00000000
       -49.00000000     -49.00000000     -49.00000000     -49.00000000     -49.00000000     -49.00000000     -49.00000000     -49.00000000     -49.00000000     -49.00000000     -49.00000000     -49.00000000     -49.00000000     -49.00000000     -49.00000000     -49.00000000     -49.00000000     -49.00000000     -49.00000000     -49.00000000
       -49.00000000     -49.00000000     -49.00000000     -49.00000000     -49.00000000     -49.00000000     -49.00000000     -49.00000000     -49.00000000     -49.00000000     -49.00000000     -49.00000000     -49.00000000     -49.00000000     -49.00000000     -49.00000000     -49.00000000     -49.00000000     -49.00000000     -49.00000000
       -49.00000000     -49.00000000     -49.00000000     -49.00000000     -49.00000000     -49.00000000     -49.00000000     -49.00000000     -49.00000000     -49.00000000     -49.00000000     -49.00000000     -49.00000000     -49.00000000     -49.00000000     -49.00000000     -49.00000000     -49.00000000     -49.00000000     -49.00000000
       -49.00000000     -49.00000000     -49.00000000     -49.00000000     -49.00000000     -49.00000000     -49.00000000     -49.00000000     -49.00000000     -49.00000000     -49.00000000     -49.00000000     -49.00000000     -49.00000000     -49.00000000     -49.00000000     -49.00000000     -49.00000000     -49.00000000     -49.00000000
       -49.00000000     -49.00000000     -49.00000000     -49.00000000     -42.95000076     -44.84999847     -45.56000137     -46.74000168     -47.38000107     -45.81000137     -48.47999954     -48.63000107     -48.72000122     -49.50000000     -48.20000076     -48.31999969     -49.50000000     -48.86000061     -48.41999817     -48.86000061
       -49.00000000     -49.00000000     -49.00000000     -49.00000000     -49.00000000     -49.00000000     -49.00000000     -49.00000000     -49.00000000     -49.00000000     -49.00000000     -49.00000000     -49.00000000     -49.00000000     -49.00000000    -173.64129639    -175.71389771    -177.74420166    -179.73959351    -181.83880615
      -183.41960144    -184.14830017    -186.02029419    -187.90440369    -189.46409607    -191.66340637    -193.92469788    -196.52239990    -199.17880249    -202.10110474
       -49.00000000     -49.00000000     -49.00000000     -49.00000000     -49.00000000     -49.00000000     -49.00000000     -49.00000000     -49.00000000     -49.00000000     -49.00000000     -49.00000000     -49.00000000     -49.00000000     -49.00000000     -49.00000000     -49.00000000     -49.00000000     -49.00000000     -49.00000000
       -49.00000000     -49.00000000     -49.00000000     -49.00000000     -49.00000000     -49.00000000     -49.00000000     -49.00000000     -49.00000000     -49.00000000     -49.00000000     -49.00000000     -49.00000000     -49.00000000     -49.00000000     -49.00000000     -49.00000000     -49.00000000     -49.00000000     -49.00000000
       -49.00000000     -49.00000000     -49.00000000     -49.00000000     -49.00000000     -49.00000000     -49.00000000     -49.00000000     -49.00000000     -49.00000000     -49.00000000     -49.00000000     -49.00000000     -49.00000000     -49.00000000     -49.00000000     -49.00000000     -49.00000000     -49.00000000     -49.00000000
       -49.00000000     -49.00000000     -49.00000000     -49.00000000     -49.00000000     -49.00000000     -49.00000000     -49.00000000     -49.00000000     -49.00000000     -49.00000000     -49.00000000     -49.00000000     -49.00000000     -49.00000000     -49.00000000     -49.00000000     -49.00000000     -49.00000000     -49.00000000
       -49.00000000     -49.00000000     -49.00000000     -49.00000000     -49.00000000     -49.00000000     -49.00000000     -49.00000000     -49.00000000     -49.00000000     -49.00000000     -49.00000000     -49.00000000     -49.00000000     -49.00000000     -49.00000000     -49.00000000     -49.00000000     -49.00000000     -49.00000000
       -49.00000000     -49.00000000     -49.00000000     -49.00000000     -49.00000000     -49.00000000     -49.00000000     -49.00000000     -49.00000000     -49.00000000     -49.00000000     -49.00000000     -49.00000000     -49.00000000     -49.00000000     -49.00000000     -49.00000000     -49.00000000     -49.00000000     -49.00000000
       -49.00000000     -49.00000000     -49.00000000     -49.00000000     -49.00000000     -49.00000000     -49.00000000     -49.00000000     -49.00000000     -49.00000000     -49.00000000     -49.00000000     -49.00000000     -49.00000000     -49.00000000     -49.00000000     -49.00000000     -49.00000000     -49.00000000     -49.00000000
       -49.00000000     -49.00000000     -49.00000000     -49.00000000     -49.00000000     -49.00000000     -49.00000000     -49.00000000     -49.00000000     -49.00000000     -49.00000000     -49.00000000     -49.00000000     -49.00000000     -49.00000000     -49.00000000     -49.00000000     -49.00000000     -49.00000000     -49.00000000
       -49.00000000     -49.00000000     -49.00000000     -49.00000000     -49.00000000     -49.00000000     -49.00000000     -49.00000000     -49.00000000     -49.00000000     -49.00000000     -49.00000000     -49.00000000     -49.00000000     -49.00000000     -49.00000000     -49.00000000     -49.00000000     -49.00000000     -49.00000000
       -49.00000000     -49.00000000     -49.00000000     -49.00000000     -49.00000000     -49.00000000     -49.00000000     -49.00000000     -49.00000000     -49.00000000     -49.00000000     -49.00000000     -49.00000000     -49.00000000     -49.00000000     -49.00000000     -49.00000000     -49.00000000     -49.00000000     -49.00000000
       -49.00000000     -49.00000000     -49.00000000     -49.00000000     -42.18000031     -44.34999847     -45.56000137     -47.45999908     -47.65000153     -48.11000061     -45.66999817     -47.50000000     -48.08000183     -48.27000046     -47.02000046     -46.84999847     -47.00000000     -49.50000000     -49.50000000     -48.95000076
       -49.00000000     -49.00000000     -49.00000000     -49.00000000     -49.00000000     -49.00000000     -49.00000000     -49.00000000     -49.00000000     -49.00000000     -49.00000000     -49.00000000     -49.00000000     -49.00000000     -49.00000000    -174.62069702    -176.52139282    -178.54760742    -180.44670105    -182.44070435
      -184.15370178    -184.88110352    -186.71769714    -188.55830383    -190.09500122    -192.25570679    -194.46260071    -197.05459595    -199.69340515    -202.61160278
       -49.00000000     -49.00000000     -49.00000000     -49.00000000     -49.00000000     -49.00000000     -49.00000000     -49.00000000     -49.00000000     -49.00000000     -49.00000000     -49.00000000     -49.00000000     -49.00000000     -49.00000000     -49.00000000     -49.00000000     -49.00000000     -49.00000000     -49.00000000
       -49.00000000     -49.00000000     -49.00000000     -49.00000000     -49.00000000     -49.00000000     -49.00000000     -49.00000000     -49.00000000     -49.00000000     -49.00000000     -49.00000000     -49.00000000     -49.00000000     -49.00000000     -49.00000000     -49.00000000     -49.00000000     -49.00000000     -49.00000000
       -49.00000000     -49.00000000     -49.00000000     -49.00000000     -49.00000000     -49.00000000     -49.00000000     -49.00000000     -49.00000000     -49.00000000     -49.00000000     -49.00000000     -49.00000000     -49.00000000     -49.00000000     -49.00000000     -49.00000000     -49.00000000     -49.00000000     -49.00000000
       -49.00000000     -49.00000000     -49.00000000     -49.00000000     -49.00000000     -49.00000000     -49.00000000     -49.00000000     -49.00000000     -49.00000000     -49.00000000     -49.00000000     -49.00000000     -49.00000000     -49.00000000     -49.00000000     -49.00000000     -49.00000000     -49.00000000     -49.00000000
       -49.00000000     -49.00000000     -49.00000000     -49.00000000     -49.00000000     -49.00000000     -49.00000000     -49.00000000     -49.00000000     -49.00000000     -49.00000000     -49.00000000     -49.00000000     -49.00000000     -49.00000000     -49.00000000     -49.00000000     -49.00000000     -49.00000000     -49.00000000
       -49.00000000     -49.00000000     -49.00000000     -49.00000000     -49.00000000     -49.00000000     -49.00000000     -49.00000000     -49.00000000     -49.00000000     -49.00000000     -49.00000000     -49.00000000     -49.00000000     -49.00000000     -49.00000000     -49.00000000     -49.00000000     -49.00000000     -49.00000000
       -49.00000000     -49.00000000     -49.00000000     -49.00000000     -49.00000000     -49.00000000     -49.00000000     -49.00000000     -49.00000000     -49.00000000     -49.00000000     -49.00000000     -49.00000000     -49.00000000     -49.00000000     -49.00000000     -49.00000000     -49.00000000     -49.00000000     -49.00000000
       -49.00000000     -49.00000000     -49.00000000     -49.00000000     -49.00000000     -49.00000000     -49.00000000     -49.00000000     -49.00000000     -49.00000000     -49.00000000     -49.00000000     -49.00000000     -49.00000000     -49.00000000     -49.00000000     -49.00000000     -49.00000000     -49.00000000     -49.00000000
       -49.00000000     -49.00000000     -49.00000000     -49.00000000     -49.00000000     -49.00000000     -49.00000000     -49.00000000     -49.00000000     -49.00000000     -49.00000000     -49.00000000     -49.00000000     -49.00000000     -49.00000000     -49.00000000     -49.00000000     -49.00000000     -49.00000000     -49.00000000
       -49.00000000     -49.00000000     -49.00000000     -49.00000000     -49.00000000     -49.00000000     -49.00000000     -49.00000000     -49.00000000     -49.00000000     -49.00000000     -49.00000000     -49.00000000     -49.00000000     -49.00000000     -49.00000000     -49.00000000     -49.00000000     -49.00000000     -49.00000000
       -49.00000000     -49.00000000     -49.00000000     -49.00000000     -42.52000046     -45.27000046     -45.93000031     -48.18000031     -48.08000183     -46.56000137     -43.40999985     -38.88999939     -39.36000061     -38.86000061    -147.61650085    -143.47799683     -41.34999847     -46.02999878     -46.86000061     -49.50000000
       -48.88000107     -49.00000000     -49.00000000     -49.00000000     -49.00000000     -49.00000000     -49.00000000     -49.00000000     -49.00000000     -49.00000000     -49.00000000     -49.00000000     -49.00000000     -49.00000000     -49.00000000    -175.70199585    -177.64880371    -179.69509888    -181.54730225    -183.27299500
      -185.13139343    -186.02780151    -187.82859802    -189.63499451    -191.13259888    -193.24240112    -195.40570068    -197.94889832    -200.55119324    -203.45309448
       -49.00000000     -49.00000000     -49.00000000     -49.00000000     -49.00000000     -49.00000000     -49.00000000     -49.00000000     -49.00000000     -49.00000000     -49.00000000     -49.00000000     -49.00000000     -49.00000000     -49.00000000     -49.00000000     -49.00000000     -49.00000000     -49.00000000     -49.00000000
       -49.00000000     -49.00000000     -49.00000000     -49.00000000     -49.00000000     -49.00000000     -49.00000000     -49.00000000     -49.00000000     -49.00000000     -49.00000000     -49.00000000     -49.00000000     -49.00000000     -49.00000000     -49.00000000     -49.00000000     -49.00000000     -49.00000000     -49.00000000
       -49.00000000     -49.00000000     -49.00000000     -49.00000000     -49.00000000     -49.00000000     -49.00000000     -49.00000000     -49.00000000     -49.00000000     -49.00000000     -49.00000000     -49.00000000     -49.00000000     -49.00000000     -49.00000000     -49.00000000     -49.00000000     -49.00000000     -49.00000000
       -49.00000000     -49.00000000     -49.00000000     -49.00000000     -49.00000000     -49.00000000     -49.00000000     -49.00000000     -49.00000000     -49.00000000     -49.00000000     -49.00000000     -49.00000000     -49.00000000     -49.00000000     -49.00000000     -49.00000000     -49.00000000     -49.00000000     -49.00000000
       -49.00000000     -49.00000000     -49.00000000     -49.00000000     -49.00000000     -49.00000000     -49.00000000     -49.00000000     -49.00000000     -49.00000000     -49.00000000     -49.00000000     -49.00000000     -49.00000000     -49.00000000     -49.00000000     -49.00000000     -49.00000000     -49.00000000     -49.00000000
       -49.00000000     -49.00000000     -49.00000000     -49.00000000     -49.00000000     -49.00000000     -49.00000000     -49.00000000     -49.00000000     -49.00000000     -49.00000000     -49.00000000     -49.00000000     -49.00000000     -49.00000000     -49.00000000     -49.00000000     -49.00000000     -49.00000000     -49.00000000
       -49.00000000     -49.00000000     -49.00000000     -49.00000000     -49.00000000     -49.00000000     -49.00000000     -49.00000000     -49.00000000     -49.00000000     -49.00000000     -49.00000000     -49.00000000     -49.00000000     -49.00000000     -49.00000000     -49.00000000     -49.00000000     -49.00000000     -49.00000000
       -49.00000000     -49.00000000     -49.00000000     -49.00000000     -49.00000000     -49.00000000     -49.00000000     -49.00000000     -49.00000000     -49.00000000     -49.00000000     -49.00000000     -49.00000000     -49.00000000     -49.00000000     -49.00000000     -49.00000000     -49.00000000     -49.00000000     -49.00000000
       -49.00000000     -49.00000000     -49.00000000     -49.00000000     -49.00000000     -49.00000000     -49.00000000     -49.00000000     -49.00000000     -49.00000000     -49.00000000     -49.00000000     -49.00000000     -49.00000000     -49.00000000     -49.00000000     -49.00000000     -49.00000000     -49.00000000     -49.00000000
       -49.00000000     -49.00000000     -49.00000000     -49.00000000     -49.00000000     -49.00000000     -49.00000000     -49.00000000     -49.00000000     -49.00000000     -49.00000000     -49.00000000     -49.00000000     -49.00000000     -49.00000000     -49.00000000     -49.00000000     -49.00000000     -49.00000000     -49.00000000
       -49.00000000     -49.00000000     -49.00000000     -49.00000000     -43.29000092     -45.25000000     -46.43999863     -48.11999893     -47.24000168     -43.13999939     -34.93999863    -100.71839905    -100.90599823    -145.75559998    -141.68029785    -138.71000671    -137.48350525    -137.11830139    -137.24780273     -43.47000122
       -47.68000031     -49.00000000     -49.00000000     -49.00000000     -49.00000000     -49.00000000     -49.00000000     -49.00000000     -49.00000000     -49.00000000     -49.00000000     -49.00000000     -49.00000000     -49.00000000    -174.31910706    -176.63290405    -178.63079834    -180.71870422    -182.58110046    -184.20489502