BEGIN options
END options

BEGIN griddata
  icelltype
    CONSTANT  0
  k
    INTERNAL  FACTOR  1.0
    1.00000000E-05  1.00000000E-05  1.00000000E-05  1.00000000E-05  1.00000000E-05  1.00000000E-05  1.00000000E-05  1.00000000E-05  1.00000000E-05  1.00000000E-05  1.00000000E-05  1.00000000E-05  1.00000000E-05  1.00000000E-05  1.00000000E-05  1.00000000E-05  1.00000000E-05  1.00000000E-05  1.00000000E-05  1.00000000E-05
    1.00000000E-05  1.00000000E-05  1.00000000E-05  1.00000000E-05  1.00000000E-05  1.00000000E-05  1.00000000E-05  1.00000000E-05  1.00000000E-05  1.00000000E-05  1.00000000E-05  1.00000000E-05  1.00000000E-05  1.00000000E-05  1.00000000E-05  1.00000000E-05  1.00000000E-05  1.00000000E-05  1.00000000E-05  1.00000000E-05
    1.00000000E-05  1.00000000E-05  1.00000000E-05  1.00000000E-05  1.00000000E-05  1.00000000E-05  1.00000000E-05  1.00000000E-05  1.00000000E-05  1.00000000E-05  1.00000000E-05  1.00000000E-05  1.00000000E-05  1.00000000E-05  1.00000000E-05  1.00000000E-05  1.00000000E-05  1.00000000E-05  1.00000000E-05  1.00000000E-05
    1.00000000E-05  1.00000000E-05  1.00000000E-05  1.00000000E-05  1.00000000E-05  1.00000000E-05  1.00000000E-05  1.00000000E-05  1.00000000E-05  1.00000000E-05  1.00000000E-05  1.00000000E-05  1.00000000E-05  1.00000000E-05  1.00000000E-05  1.00000000E-05  1.00000000E-05  1.00000000E-05  1.00000000E-05  1.00000000E-05
    1.00000000E-05  1.00000000E-05  1.00000000E-05  1.00000000E-05  1.00000000E-05  1.00000000E-05  1.00000000E-05  1.00000000E-05  1.00000000E-05  1.00000000E-05  1.00000000E-05  1.00000000E-05  1.00000000E-05  1.00000000E-05  1.00000000E-05  1.00000000E-05  1.00000000E-05  1.00000000E-05  1.00000000E-05  1.00000000E-05
    1.00000000E-05  1.00000000E-05  1.00000000E-05  1.00000000E-05  1.00000000E-05  1.00000000E-05  1.00000000E-05  1.00000000E-05  1.00000000E-05  1.00000000E-05  1.00000000E-05  1.00000000E-05  1.00000000E-05  1.00000000E-05  1.00000000E-05  1.00000000E-05  1.00000000E-05  1.00000000E-05  1.00000000E-05  1.00000000E-05
    1.00000000E-05  1.00000000E-05  1.00000000E-05  1.00000000E-05  1.00000000E-05  1.00000000E-05  1.00000000E-05  1.00000000E-05  1.00000000E-05  1.00000000E-05  1.00000000E-05  1.00000000E-05  1.00000000E-05  1.00000000E-05  1.00000000E-05  1.00000000E-05  1.00000000E-05  1.00000000E-05  1.00000000E-05  1.00000000E-05
    1.00000000E-05  1.00000000E-05  1.00000000E-05  1.00000000E-05  1.00000000E-05  1.00000000E-05  1.00000000E-05  1.00000000E-05  1.00000000E-05  1.00000000E-05  1.00000000E-05  1.00000000E-05  1.00000000E-05  1.00000000E-05  1.00000000E-05  1.00000000E-05  1.00000000E-05  1.00000000E-05  1.00000000E-05  1.00000000E-05
    1.00000000E-05  1.00000000E-05  1.00000000E-05  1.00000000E-05  1.00000000E-05  1.00000000E-05  1.00000000E-05  1.00000000E-05  1.00000000E-05  1.00000000E-05  1.00000000E-05  1.00000000E-05  1.00000000E-05  1.00000000E-05  1.00000000E-05  1.00000000E-05  1.00000000E-05  1.00000000E-05  1.00000000E-05  1.00000000E-05
    1.00000000E-05  1.00000000E-05  1.00000000E-05  1.00000000E-05  1.00000000E-05  1.00000000E-05  1.00000000E-05  1.00000000E-05  1.00000000E-05  1.00000000E-05  1.00000000E-05  1.00000000E-05  1.00000000E-05  1.00000000E-05  1.00000000E-05  1.00000000E-05  1.00000000E-05  1.00000000E-05  1.00000000E-05  1.00000000E-05
    1.00000000E-05  1.00000000E-05  1.00000000E-05  1.00000000E-05  1.00000000E-05  1.00000000E-05  1.00000000E-05  1.00000000E-05  1.00000000E-05  1.00000000E-05  1.00000000E-05  1.00000000E-05  1.00000000E-05  1.00000000E-05  1.00000000E-05  1.00000000E-05  1.00000000E-05  1.00000000E-05  1.00000000E-05  1.00000000E-05
    1.00000000E-05  1.00000000E-05  1.00000000E-05  1.00000000E-05  1.00000000E-05  1.00000000E-05  1.00000000E-05  1.00000000E-05  1.00000000E-05  1.00000000E-05  1.00000000E-05  1.00000000E-05  1.00000000E-05  1.00000000E-05  1.00000000E-05  1.00000000E-05  1.00000000E-05  1.00000000E-05  1.00000000E-05  1.00000000E-05
    1.00000000E-05  1.00000000E-05  1.00000000E-05  1.00000000E-05  1.00000000E-05  1.00000000E-05  1.00000000E-05  1.00000000E-05  1.00000000E-05  1.00000000E-05
    1.00000000E-05  1.00000000E-05  1.00000000E-05  1.00000000E-05  1.00000000E-05  1.00000000E-05  1.00000000E-05  1.00000000E-05  1.00000000E-05  1.00000000E-05  1.00000000E-05  1.00000000E-05  1.00000000E-05  1.00000000E-05  1.00000000E-05  1.00000000E-05  1.00000000E-05  1.00000000E-05  1.00000000E-05  1.00000000E-05
    1.00000000E-05  1.00000000E-05  1.00000000E-05  1.00000000E-05  1.00000000E-05  1.00000000E-05  1.00000000E-05  1.00000000E-05  1.00000000E-05  1.00000000E-05  1.00000000E-05  1.00000000E-05  1.00000000E-05  1.00000000E-05  1.00000000E-05  1.00000000E-05  1.00000000E-05  1.00000000E-05  1.00000000E-05  1.00000000E-05
    1.00000000E-05  1.00000000E-05  1.00000000E-05  1.00000000E-05  1.00000000E-05  1.00000000E-05  1.00000000E-05  1.00000000E-05  1.00000000E-05  1.00000000E-05  1.00000000E-05  1.00000000E-05  1.00000000E-05  1.00000000E-05  1.00000000E-05  1.00000000E-05  1.00000000E-05  1.00000000E-05  1.00000000E-05  1.00000000E-05
    1.00000000E-05  1.00000000E-05  1.00000000E-05  1.00000000E-05  1.00000000E-05  1.00000000E-05  1.00000000E-05  1.00000000E-05  1.00000000E-05  1.00000000E-05  1.00000000E-05  1.00000000E-05  1.00000000E-05  1.00000000E-05  1.00000000E-05  1.00000000E-05  1.00000000E-05  1.00000000E-05  1.00000000E-05  1.00000000E-05
    1.00000000E-05  1.00000000E-05  1.00000000E-05  1.00000000E-05  1.00000000E-05  1.00000000E-05  1.00000000E-05  1.00000000E-05  1.00000000E-05  1.00000000E-05  1.00000000E-05  1.00000000E-05  1.00000000E-05  1.00000000E-05  1.00000000E-05  1.00000000E-05  1.00000000E-05  1.00000000E-05  1.00000000E-05  1.00000000E-05
    1.00000000E-05  1.00000000E-05  1.00000000E-05  1.00000000E-05  1.00000000E-05  1.00000000E-05  1.00000000E-05  1.00000000E-05  1.00000000E-05  1.00000000E-05  1.00000000E-05  1.00000000E-05  1.00000000E-05  1.00000000E-05  1.00000000E-05  1.00000000E-05  1.00000000E-05  1.00000000E-05  1.00000000E-05  1.00000000E-05
    1.00000000E-05  1.00000000E-05  1.00000000E-05  1.00000000E-05  1.00000000E-05  1.00000000E-05  1.00000000E-05  1.00000000E-05  1.00000000E-05  1.00000000E-05  1.00000000E-05  1.00000000E-05  1.00000000E-05  1.00000000E-05  1.00000000E-05  1.00000000E-05  1.00000000E-05  1.00000000E-05  1.00000000E-05  1.00000000E-05
    1.00000000E-05  1.00000000E-05  1.00000000E-05  1.00000000E-05  1.00000000E-05  1.00000000E-05  1.00000000E-05  1.00000000E-05  1.00000000E-05  1.00000000E-05  1.00000000E-05  1.00000000E-05  1.00000000E-05  1.00000000E-05  1.00000000E-05  1.00000000E-05  1.00000000E-05  1.00000000E-05  1.00000000E-05  1.00000000E-05
    1.00000000E-05  1.00000000E-05  1.00000000E-05  1.00000000E-05  1.00000000E-05  1.00000000E-05  1.00000000E-05  1.00000000E-05  1.00000000E-05  1.00000000E-05  1.00000000E-05  1.00000000E-05  1.00000000E-05  1.00000000E-05  1.00000000E-05  1.00000000E-05  1.00000000E-05  1.00000000E-05  1.00000000E-05  1.00000000E-05
    1.00000000E-05  1.00000000E-05  1.00000000E-05  1.00000000E-05  1.00000000E-05  1.00000000E-05  1.00000000E-05  1.00000000E-05  1.00000000E-05  1.00000000E-05  1.00000000E-05  1.00000000E-05  1.00000000E-05  1.00000000E-05  1.00000000E-05  1.00000000E-05  1.00000000E-05  1.00000000E-05  1.00000000E-05  1.00000000E-05
    1.00000000E-05  1.00000000E-05  1.00000000E-05  1.00000000E-05  1.00000000E-05  1.00000000E-05  1.00000000E-05  1.00000000E-05  1.00000000E-05  1.00000000E-05  1.00000000E-05  1.00000000E-05  1.00000000E-05  1.00000000E-05  1.00000000E-05  1.00000000E-05  1.00000000E-05  1.00000000E-05  1.00000000E-05  1.00000000E-05
    1.00000000E-05  1.00000000E-05  1.00000000E-05  1.00000000E-05  1.00000000E-05  1.00000000E-05  1.00000000E-05  1.00000000E-05  1.00000000E-05  1.00000000E-05  1.00000000E-05  1.00000000E-05  1.00000000E-05  1.00000000E-05  1.00000000E-05  1.00000000E-05  1.00000000E-05  1.00000000E-05  1.00000000E-05  1.00000000E-05
    1.00000000E-05  1.00000000E-05  1.00000000E-05  1.00000000E-05  1.00000000E-05  1.00000000E-05  1.00000000E-05  1.00000000E-05  1.00000000E-05  1.00000000E-05
    1.00000000E-05  1.00000000E-05  1.00000000E-05  1.00000000E-05  1.00000000E-05  1.00000000E-05  1.00000000E-05  1.00000000E-05  1.00000000E-05  1.00000000E-05  1.00000000E-05  1.00000000E-05  1.00000000E-05  1.00000000E-05  1.00000000E-05  1.00000000E-05  1.00000000E-05  1.00000000E-05  1.00000000E-05  1.00000000E-05
    1.00000000E-05  1.00000000E-05  1.00000000E-05  1.00000000E-05  1.00000000E-05  1.00000000E-05  1.00000000E-05  1.00000000E-05  1.00000000E-05  1.00000000E-05  1.00000000E-05  1.00000000E-05  1.00000000E-05  1.00000000E-05  1.00000000E-05  1.00000000E-05  1.00000000E-05  1.00000000E-05  1.00000000E-05  1.00000000E-05
    1.00000000E-05  1.00000000E-05  1.00000000E-05  1.00000000E-05  1.00000000E-05  1.00000000E-05  1.00000000E-05  1.00000000E-05  1.00000000E-05  1.00000000E-05  1.00000000E-05  1.00000000E-05  1.00000000E-05  1.00000000E-05  1.00000000E-05  1.00000000E-05  1.00000000E-05  1.00000000E-05  1.00000000E-05  1.00000000E-05
    1.00000000E-05  1.00000000E-05  1.00000000E-05  1.00000000E-05  1.00000000E-05  1.00000000E-05  1.00000000E-05  1.00000000E-05  1.00000000E-05  1.00000000E-05  1.00000000E-05  1.00000000E-05  1.00000000E-05  1.00000000E-05  1.00000000E-05  1.00000000E-05  1.00000000E-05  1.00000000E-05  1.00000000E-05  1.00000000E-05
    1.00000000E-05  1.00000000E-05  1.00000000E-05  1.00000000E-05  1.00000000E-05  1.00000000E-05  1.00000000E-05  1.00000000E-05  1.00000000E-05  1.00000000E-05  1.00000000E-05  1.00000000E-05  1.00000000E-05  1.00000000E-05  1.00000000E-05  1.00000000E-05  1.00000000E-05  1.00000000E-05  1.00000000E-05  1.00000000E-05
    1.00000000E-05  1.00000000E-05  1.00000000E-05  1.00000000E-05  1.00000000E-05  1.00000000E-05  1.00000000E-05  1.00000000E-05  1.00000000E-05  1.00000000E-05  1.00000000E-05  1.00000000E-05  1.00000000E-05  1.00000000E-05  1.00000000E-05  1.00000000E-05  1.00000000E-05  1.00000000E-05  1.00000000E-05  1.00000000E-05
    1.00000000E-05  1.00000000E-05  1.00000000E-05  1.00000000E-05  1.00000000E-05  1.00000000E-05  1.00000000E-05  1.00000000E-05  1.00000000E-05  1.00000000E-05  1.00000000E-05  1.00000000E-05  1.00000000E-05  1.00000000E-05  1.00000000E-05  1.00000000E-05  1.00000000E-05  1.00000000E-05  1.00000000E-05  1.00000000E-05
    1.00000000E-05  1.00000000E-05  1.00000000E-05  1.00000000E-05  1.00000000E-05  1.00000000E-05  1.00000000E-05  1.00000000E-05  1.00000000E-05  1.00000000E-05  1.00000000E-05  1.00000000E-05  1.00000000E-05  1.00000000E-05  1.00000000E-05  1.00000000E-05  1.00000000E-05  1.00000000E-05  1.00000000E-05  1.00000000E-05
    1.00000000E-05  1.00000000E-05  1.00000000E-05  1.00000000E-05  1.00000000E-05  1.00000000E-05  1.00000000E-05  1.00000000E-05  1.00000000E-05  1.00000000E-05  1.00000000E-05  1.00000000E-05  1.00000000E-05  1.00000000E-05  1.00000000E-05  1.00000000E-05  1.00000000E-05  1.00000000E-05  1.00000000E-05  1.00000000E-05
    1.00000000E-05  1.00000000E-05  1.00000000E-05  1.00000000E-05  1.00000000E-05  1.00000000E-05  1.00000000E-05  1.00000000E-05  1.00000000E-05  1.00000000E-05  1.00000000E-05  1.00000000E-05  1.00000000E-05  1.00000000E-05  1.00000000E-05  1.00000000E-05  1.00000000E-05  1.00000000E-05  1.00000000E-05  1.00000000E-05
    1.00000000E-05  1.00000000E-05  1.00000000E-05  1.00000000E-05  1.00000000E-05  1.00000000E-05  1.00000000E-05  1.00000000E-05  1.00000000E-05  1.00000000E-05  1.00000000E-05  1.00000000E-05  1.00000000E-05  1.00000000E-05  1.00000000E-05  1.00000000E-05  1.00000000E-05  1.00000000E-05  1.00000000E-05  1.00000000E-05
    1.00000000E-05  1.00000000E-05  1.00000000E-05  1.00000000E-05  1.00000000E-05  1.00000000E-05  1.00000000E-05  1.00000000E-05  1.00000000E-05  1.00000000E-05  1.00000000E-05  1.00000000E-05  1.00000000E-05  1.00000000E-05  1.00000000E-05  1.00000000E-05  1.00000000E-05  1.00000000E-05  1.00000000E-05  1.00000000E-05
    1.00000000E-05  1.00000000E-05  1.00000000E-05  1.00000000E-05  1.00000000E-05  1.00000000E-05  1.00000000E-05  1.00000000E-05  1.00000000E-05  1.00000000E-05
    1.00000000E-05  1.00000000E-05  1.00000000E-05  1.00000000E-05  1.00000000E-05  1.00000000E-05  1.00000000E-05  1.00000000E-05  1.00000000E-05  1.00000000E-05  1.00000000E-05  1.00000000E-05  1.00000000E-05  1.00000000E-05  1.00000000E-05  1.00000000E-05  1.00000000E-05  1.00000000E-05  1.00000000E-05  1.00000000E-05
    1.00000000E-05  1.00000000E-05  1.00000000E-05  1.00000000E-05  1.00000000E-05  1.00000000E-05  1.00000000E-05  1.00000000E-05  1.00000000E-05  1.00000000E-05  1.00000000E-05  1.00000000E-05  1.00000000E-05  1.00000000E-05  1.00000000E-05  1.00000000E-05  1.00000000E-05  1.00000000E-05  1.00000000E-05  1.00000000E-05
    1.00000000E-05  1.00000000E-05  1.00000000E-05  1.00000000E-05  1.00000000E-05  1.00000000E-05  1.00000000E-05  1.00000000E-05  1.00000000E-05  1.00000000E-05  1.00000000E-05  1.00000000E-05  1.00000000E-05  1.00000000E-05  1.00000000E-05  1.00000000E-05  1.00000000E-05  1.00000000E-05  1.00000000E-05  1.00000000E-05
    1.00000000E-05  1.00000000E-05  1.00000000E-05  1.00000000E-05  1.00000000E-05  1.00000000E-05  1.00000000E-05  1.00000000E-05  1.00000000E-05  1.00000000E-05  1.00000000E-05  1.00000000E-05  1.00000000E-05  1.00000000E-05  1.00000000E-05  1.00000000E-05  1.00000000E-05  1.00000000E-05  1.00000000E-05  1.00000000E-05
    1.00000000E-05  1.00000000E-05  1.00000000E-05  1.00000000E-05  1.00000000E-05  1.00000000E-05  1.00000000E-05  1.00000000E-05  1.00000000E-05  1.00000000E-05  1.00000000E-05  1.00000000E-05  1.00000000E-05  1.00000000E-05  1.00000000E-05  1.00000000E-05  1.00000000E-05  1.00000000E-05  1.00000000E-05  1.00000000E-05
    1.00000000E-05  1.00000000E-05  1.00000000E-05  1.00000000E-05  1.00000000E-05  1.00000000E-05  1.00000000E-05  1.00000000E-05  1.00000000E-05  1.00000000E-05  1.00000000E-05  1.00000000E-05  1.00000000E-05  1.00000000E-05  1.00000000E-05  1.00000000E-05  1.00000000E-05  1.00000000E-05  1.00000000E-05  1.00000000E-05
    1.00000000E-05  1.00000000E-05  1.00000000E-05  1.00000000E-05  1.00000000E-05  1.00000000E-05  1.00000000E-05  1.00000000E-05  1.00000000E-05  1.00000000E-05  1.00000000E-05  1.00000000E-05  1.00000000E-05  1.00000000E-05  1.00000000E-05  1.00000000E-05  1.00000000E-05  1.00000000E-05  1.00000000E-05  1.00000000E-05
    1.00000000E-05  1.00000000E-05  1.00000000E-05  1.00000000E-05  1.00000000E-05  1.00000000E-05  1.00000000E-05  1.00000000E-05  1.00000000E-05  1.00000000E-05  1.00000000E-05  1.00000000E-05  1.00000000E-05  1.00000000E-05  1.00000000E-05  1.00000000E-05  1.00000000E-05  1.00000000E-05  1.00000000E-05  1.00000000E-05
    1.00000000E-05  1.00000000E-05  1.00000000E-05  1.00000000E-05  1.00000000E-05  1.00000000E-05  1.00000000E-05  1.00000000E-05  1.00000000E-05  1.00000000E-05  1.00000000E-05  1.00000000E-05  1.00000000E-05  1.00000000E-05  1.00000000E-05  1.00000000E-05  1.00000000E-05  1.00000000E-05  1.00000000E-05  1.00000000E-05
    1.00000000E-05  1.00000000E-05  1.00000000E-05  1.00000000E-05  1.00000000E-05  1.00000000E-05  1.00000000E-05  1.00000000E-05  1.00000000E-05  1.00000000E-05  1.00000000E-05  1.00000000E-05  1.00000000E-05  1.00000000E-05  1.00000000E-05  1.00000000E-05  1.00000000E-05  1.00000000E-05  1.00000000E-05  1.00000000E-05
    1.00000000E-05  1.00000000E-05  1.00000000E-05  1.00000000E-05  1.00000000E-05  1.00000000E-05  1.00000000E-05  1.00000000E-05  1.00000000E-05  1.00000000E-05  1.00000000E-05  1.00000000E-05  1.00000000E-05  1.00000000E-05  1.00000000E-05  1.00000000E-05  1.00000000E-05  1.00000000E-05  1.00000000E-05  1.00000000E-05
    1.00000000E-05  1.00000000E-05  1.00000000E-05  1.00000000E-05  1.00000000E-05  1.00000000E-05  1.00000000E-05  1.00000000E-05  1.00000000E-05  1.00000000E-05  1.00000000E-05  1.00000000E-05  1.00000000E-05  1.00000000E-05  1.00000000E-05  1.00000000E-05  1.00000000E-05  1.00000000E-05  1.00000000E-05  1.00000000E-05
    1.00000000E-05  1.00000000E-05  1.00000000E-05  1.00000000E-05  1.00000000E-05  1.00000000E-05  1.00000000E-05  1.00000000E-05  1.00000000E-05  1.00000000E-05
    1.00000000E-05  1.00000000E-05  1.00000000E-05  1.00000000E-05  1.00000000E-05  1.00000000E-05  1.00000000E-05  1.00000000E-05  1.00000000E-05  1.00000000E-05  1.00000000E-05  1.00000000E-05  1.00000000E-05  1.00000000E-05  1.00000000E-05  1.00000000E-05  1.00000000E-05  1.00000000E-05  1.00000000E-05  1.00000000E-05
    1.00000000E-05  1.00000000E-05  1.00000000E-05  1.00000000E-05  1.00000000E-05  1.00000000E-05  1.00000000E-05  1.00000000E-05  1.00000000E-05  1.00000000E-05  1.00000000E-05  1.00000000E-05  1.00000000E-05  1.00000000E-05  1.00000000E-05  1.00000000E-05  1.00000000E-05  1.00000000E-05  1.00000000E-05  1.00000000E-05
    1.00000000E-05  1.00000000E-05  1.00000000E-05  1.00000000E-05  1.00000000E-05  1.00000000E-05  1.00000000E-05  1.00000000E-05  1.00000000E-05  1.00000000E-05  1.00000000E-05  1.00000000E-05  1.00000000E-05  1.00000000E-05  1.00000000E-05  1.00000000E-05  1.00000000E-05  1.00000000E-05  1.00000000E-05  1.00000000E-05
    1.00000000E-05  1.00000000E-05  1.00000000E-05  1.00000000E-05  1.00000000E-05  1.00000000E-05  1.00000000E-05  1.00000000E-05  1.00000000E-05  1.00000000E-05  1.00000000E-05  1.00000000E-05  1.00000000E-05  1.00000000E-05  1.00000000E-05  1.00000000E-05  1.00000000E-05  1.00000000E-05  1.00000000E-05  1.00000000E-05
    1.00000000E-05  1.00000000E-05  1.00000000E-05  1.00000000E-05  1.00000000E-05  1.00000000E-05  1.00000000E-05  1.00000000E-05  1.00000000E-05  1.00000000E-05  1.00000000E-05  1.00000000E-05  1.00000000E-05  1.00000000E-05  1.00000000E-05  1.00000000E-05  1.00000000E-05  1.00000000E-05  1.00000000E-05  1.00000000E-05
    1.00000000E-05  1.00000000E-05  1.00000000E-05  1.00000000E-05  1.00000000E-05  1.00000000E-05  1.00000000E-05  1.00000000E-05  1.00000000E-05  1.00000000E-05  1.00000000E-05  1.00000000E-05  1.00000000E-05  1.00000000E-05  1.00000000E-05  1.00000000E-05  1.00000000E-05  1.00000000E-05  1.00000000E-05  1.00000000E-05
    1.00000000E-05  1.00000000E-05  1.00000000E-05  1.00000000E-05  1.00000000E-05  1.00000000E-05  1.00000000E-05  1.00000000E-05  1.00000000E-05  1.00000000E-05  1.00000000E-05  1.00000000E-05  1.00000000E-05  1.00000000E-05  1.00000000E-05  1.00000000E-05  1.00000000E-05  1.00000000E-05  1.00000000E-05  1.00000000E-05
    1.00000000E-05  1.00000000E-05  1.00000000E-05  1.00000000E-05  1.00000000E-05  1.00000000E-05  1.00000000E-05  1.00000000E-05  1.00000000E-05  1.00000000E-05  1.00000000E-05  1.00000000E-05  1.00000000E-05  1.00000000E-05  1.00000000E-05  1.00000000E-05  1.00000000E-05  1.00000000E-05  1.00000000E-05  1.00000000E-05
    1.00000000E-05  1.00000000E-05  1.00000000E-05  1.00000000E-05  1.00000000E-05  1.00000000E-05  1.00000000E-05  1.00000000E-05  1.00000000E-05  1.00000000E-05  1.00000000E-05  1.00000000E-05  1.00000000E-05  1.00000000E-05  1.00000000E-05  1.00000000E-05  1.00000000E-05  1.00000000E-05  1.00000000E-05  1.00000000E-05
    1.00000000E-05  1.00000000E-05  1.00000000E-05  1.00000000E-05  1.00000000E-05  1.00000000E-05  1.00000000E-05  1.00000000E-05  1.00000000E-05  1.00000000E-05  1.00000000E-05  1.00000000E-05  1.00000000E-05  1.00000000E-05  1.00000000E-05  1.00000000E-05  1.00000000E-05  1.00000000E-05  1.00000000E-05  1.00000000E-05
    1.00000000E-05  1.00000000E-05  1.00000000E-05  1.00000000E-05  1.00000000E-05  1.00000000E-05  1.00000000E-05  1.00000000E-05  1.00000000E-05  1.00000000E-05  1.00000000E-05  1.00000000E-05  1.00000000E-05  1.00000000E-05  1.00000000E-05  1.00000000E-05  1.00000000E-05  1.00000000E-05  1.00000000E-05  1.00000000E-05
    1.00000000E-05  1.00000000E-05  1.00000000E-05  1.00000000E-05  1.00000000E-05  1.00000000E-05  1.00000000E-05  1.00000000E-05  1.00000000E-05  1.00000000E-05  1.00000000E-05  1.00000000E-05  1.00000000E-05  1.00000000E-05  1.00000000E-05  1.00000000E-05  1.00000000E-05  1.00000000E-05  1.00000000E-05  1.00000000E-05
    1.00000000E-05  1.00000000E-05  1.00000000E-05  1.00000000E-05  1.00000000E-05  1.00000000E-05  1.00000000E-05  1.00000000E-05  1.00000000E-05  1.00000000E-05
    1.00000000E-05  1.00000000E-05  1.00000000E-05  1.00000000E-05  1.00000000E-05  1.00000000E-05  1.00000000E-05  1.00000000E-05  1.00000000E-05  1.00000000E-05  1.00000000E-05  1.00000000E-05  1.00000000E-05  1.00000000E-05  1.00000000E-05  1.00000000E-05  1.00000000E-05  1.00000000E-05  1.00000000E-05  1.00000000E-05
    1.00000000E-05  1.00000000E-05  1.00000000E-05  1.00000000E-05  1.00000000E-05  1.00000000E-05  1.00000000E-05  1.00000000E-05  1.00000000E-05  1.00000000E-05  1.00000000E-05  1.00000000E-05  1.00000000E-05  1.00000000E-05  1.00000000E-05  1.00000000E-05  1.00000000E-05  1.00000000E-05  1.00000000E-05  1.00000000E-05
    1.00000000E-05  1.00000000E-05  1.00000000E-05  1.00000000E-05  1.00000000E-05  1.00000000E-05  1.00000000E-05  1.00000000E-05  1.00000000E-05  1.00000000E-05  1.00000000E-05  1.00000000E-05  1.00000000E-05  1.00000000E-05  1.00000000E-05  1.00000000E-05  1.00000000E-05  1.00000000E-05  1.00000000E-05  1.00000000E-05
    1.00000000E-05  1.00000000E-05  1.00000000E-05  1.00000000E-05  1.00000000E-05  1.00000000E-05  1.00000000E-05  1.00000000E-05  1.00000000E-05  1.00000000E-05  1.00000000E-05  1.00000000E-05  1.00000000E-05  1.00000000E-05  1.00000000E-05  1.00000000E-05  1.00000000E-05  1.00000000E-05  1.00000000E-05  1.00000000E-05
    1.00000000E-05  1.00000000E-05  1.00000000E-05  1.00000000E-05  1.00000000E-05  1.00000000E-05  1.00000000E-05  1.00000000E-05  1.00000000E-05  1.00000000E-05  1.00000000E-05  1.00000000E-05  1.00000000E-05  1.00000000E-05  1.00000000E-05  1.00000000E-05  1.00000000E-05  1.00000000E-05  1.00000000E-05  1.00000000E-05
    1.00000000E-05  1.00000000E-05  1.00000000E-05  1.00000000E-05  1.00000000E-05  1.00000000E-05  1.00000000E-05  1.00000000E-05  1.00000000E-05  1.00000000E-05  1.00000000E-05  1.00000000E-05  1.00000000E-05  1.00000000E-05  1.00000000E-05  1.00000000E-05  1.00000000E-05  1.00000000E-05  1.00000000E-05  1.00000000E-05
    1.00000000E-05  1.00000000E-05  1.00000000E-05  1.00000000E-05  1.00000000E-05  1.00000000E-05  1.00000000E-05  1.00000000E-05  1.00000000E-05  1.00000000E-05  1.00000000E-05  1.00000000E-05  1.00000000E-05  1.00000000E-05  1.00000000E-05  1.00000000E-05  1.00000000E-05  1.00000000E-05  1.00000000E-05  1.00000000E-05
    1.00000000E-05  1.00000000E-05  1.00000000E-05  1.00000000E-05  1.00000000E-05  1.00000000E-05  1.00000000E-05  1.00000000E-05  1.00000000E-05  1.00000000E-05  1.00000000E-05  1.00000000E-05  1.00000000E-05  1.00000000E-05  1.00000000E-05  1.00000000E-05  1.00000000E-05  1.00000000E-05  1.00000000E-05  1.00000000E-05
    1.00000000E-05  1.00000000E-05  1.00000000E-05  1.00000000E-05  1.00000000E-05  1.00000000E-05  1.00000000E-05  1.00000000E-05  1.00000000E-05  1.00000000E-05  1.00000000E-05  1.00000000E-05  1.00000000E-05  1.00000000E-05  1.00000000E-05  1.00000000E-05  1.00000000E-05  1.00000000E-05  1.00000000E-05  1.00000000E-05
    1.00000000E-05  1.00000000E-05  1.00000000E-05  1.00000000E-05  1.00000000E-05  1.00000000E-05  1.00000000E-05  1.00000000E-05  1.00000000E-05  1.00000000E-05  1.00000000E-05  1.00000000E-05  1.00000000E-05  1.00000000E-05  1.00000000E-05  1.00000000E-05  1.00000000E-05  1.00000000E-05  1.00000000E-05  1.00000000E-05
    1.00000000E-05  1.00000000E-05  1.00000000E-05  1.00000000E-05  1.00000000E-05  1.00000000E-05  1.00000000E-05  1.00000000E-05  1.00000000E-05  1.00000000E-05  1.00000000E-05  1.00000000E-05  1.00000000E-05  1.00000000E-05  1.00000000E-05  1.00000000E-05  1.00000000E-05  1.00000000E-05  1.00000000E-05  1.00000000E-05
    1.00000000E-05  1.00000000E-05  1.00000000E-05  1.00000000E-05  1.00000000E-05  1.00000000E-05  1.00000000E-05  1.00000000E-05  1.00000000E-05  1.00000000E-05  1.00000000E-05  1.00000000E-05  1.00000000E-05  1.00000000E-05  1.00000000E-05  1.00000000E-05  1.00000000E-05  1.00000000E-05  1.00000000E-05  1.00000000E-05
    1.00000000E-05  1.00000000E-05  1.00000000E-05  1.00000000E-05  1.00000000E-05  1.00000000E-05  1.00000000E-05  1.00000000E-05  1.00000000E-05  1.00000000E-05
    1.00000000E-05  1.00000000E-05  1.00000000E-05  1.00000000E-05  1.00000000E-05  1.00000000E-05  1.00000000E-05  1.00000000E-05  1.00000000E-05  1.00000000E-05  1.00000000E-05  1.00000000E-05  1.00000000E-05  1.00000000E-05  1.00000000E-05  1.00000000E-05  1.00000000E-05  1.00000000E-05  1.00000000E-05  1.00000000E-05
    1.00000000E-05  1.00000000E-05  1.00000000E-05  1.00000000E-05  1.00000000E-05  1.00000000E-05  1.00000000E-05  1.00000000E-05  1.00000000E-05  1.00000000E-05  1.00000000E-05  1.00000000E-05  1.00000000E-05  1.00000000E-05  1.00000000E-05  1.00000000E-05  1.00000000E-05  1.00000000E-05  1.00000000E-05  1.00000000E-05
    1.00000000E-05  1.00000000E-05  1.00000000E-05  1.00000000E-05  1.00000000E-05  1.00000000E-05  1.00000000E-05  1.00000000E-05  1.00000000E-05  1.00000000E-05  1.00000000E-05  1.00000000E-05  1.00000000E-05  1.00000000E-05  1.00000000E-05  1.00000000E-05  1.00000000E-05  1.00000000E-05  1.00000000E-05  1.00000000E-05
    1.00000000E-05  1.00000000E-05  1.00000000E-05  1.00000000E-05  1.00000000E-05  1.00000000E-05  1.00000000E-05  1.00000000E-05  1.00000000E-05  1.00000000E-05  1.00000000E-05  1.00000000E-05  1.00000000E-05  1.00000000E-05  1.00000000E-05  1.00000000E-05  1.00000000E-05  1.00000000E-05  1.00000000E-05  1.00000000E-05
    1.00000000E-05  1.00000000E-05  1.00000000E-05  1.00000000E-05  1.00000000E-05  1.00000000E-05  1.00000000E-05  1.00000000E-05  1.00000000E-05  1.00000000E-05  1.00000000E-05  1.00000000E-05  1.00000000E-05  1.00000000E-05  1.00000000E-05  1.00000000E-05  1.00000000E-05  1.00000000E-05  1.00000000E-05  1.00000000E-05
    1.00000000E-05  1.00000000E-05  1.00000000E-05  1.00000000E-05  1.00000000E-05  1.00000000E-05  1.00000000E-05  1.00000000E-05  1.00000000E-05  1.00000000E-05  1.00000000E-05  1.00000000E-05  1.00000000E-05  1.00000000E-05  1.00000000E-05  1.00000000E-05  1.00000000E-05  1.00000000E-05  1.00000000E-05  1.00000000E-05
    1.00000000E-05  1.00000000E-05  1.00000000E-05  1.00000000E-05  1.00000000E-05  1.00000000E-05  1.00000000E-05  1.00000000E-05  1.00000000E-05  1.00000000E-05  1.00000000E-05  1.00000000E-05  1.00000000E-05  1.00000000E-05  1.00000000E-05  1.00000000E-05  1.00000000E-05  1.00000000E-05  1.00000000E-05  1.00000000E-05
    1.00000000E-05  1.00000000E-05  1.00000000E-05  1.00000000E-05  1.00000000E-05  1.00000000E-05  1.00000000E-05  1.00000000E-05  1.00000000E-05  1.00000000E-05  1.00000000E-05  1.00000000E-05  1.00000000E-05  1.00000000E-05  1.00000000E-05  1.00000000E-05  1.00000000E-05  1.00000000E-05  1.00000000E-05  1.00000000E-05
    1.00000000E-05  1.00000000E-05  1.00000000E-05  1.00000000E-05  1.00000000E-05  1.00000000E-05  1.00000000E-05  1.00000000E-05  1.00000000E-05  1.00000000E-05  1.00000000E-05  1.00000000E-05  1.00000000E-05  1.00000000E-05  1.00000000E-05  1.00000000E-05  1.00000000E-05  1.00000000E-05  1.00000000E-05  1.00000000E-05
    1.00000000E-05  1.00000000E-05  1.00000000E-05  1.00000000E-05  1.00000000E-05  1.00000000E-05  1.00000000E-05  1.00000000E-05  1.00000000E-05  1.00000000E-05  1.00000000E-05  1.00000000E-05  1.00000000E-05  1.00000000E-05  1.00000000E-05  1.00000000E-05  1.00000000E-05  1.00000000E-05  1.00000000E-05  1.00000000E-05
    1.00000000E-05  1.00000000E-05  1.00000000E-05  1.00000000E-05  1.00000000E-05  1.00000000E-05  1.00000000E-05  1.00000000E-05  1.00000000E-05  1.00000000E-05  1.00000000E-05  1.00000000E-05  1.00000000E-05  1.00000000E-05  1.00000000E-05  1.00000000E-05  1.00000000E-05  1.00000000E-05  1.00000000E-05  1.00000000E-05
    1.00000000E-05  1.00000000E-05  1.00000000E-05  1.00000000E-05  1.00000000E-05  1.00000000E-05  1.00000000E-05  1.00000000E-05  1.00000000E-05  1.00000000E-05  1.00000000E-05  1.00000000E-05  1.00000000E-05  1.00000000E-05  1.00000000E-05  1.00000000E-05  1.00000000E-05  1.00000000E-05  1.00000000E-05  1.00000000E-05
    1.00000000E-05  1.00000000E-05  1.00000000E-05  1.00000000E-05  1.00000000E-05  1.00000000E-05  1.00000000E-05  1.00000000E-05  1.00000000E-05  1.00000000E-05
    1.00000000E-05  1.00000000E-05  1.00000000E-05  1.00000000E-05  1.00000000E-05  1.00000000E-05  1.00000000E-05  1.00000000E-05  1.00000000E-05  1.00000000E-05  1.00000000E-05  1.00000000E-05  1.00000000E-05  1.00000000E-05  1.00000000E-05  1.00000000E-05  1.00000000E-05  1.00000000E-05  1.00000000E-05  1.00000000E-05
    1.00000000E-05  1.00000000E-05  1.00000000E-05  1.00000000E-05  1.00000000E-05  1.00000000E-05  1.00000000E-05  1.00000000E-05  1.00000000E-05  1.00000000E-05  1.00000000E-05  1.00000000E-05  1.00000000E-05  1.00000000E-05  1.00000000E-05  1.00000000E-05  1.00000000E-05  1.00000000E-05  1.00000000E-05  1.00000000E-05
    1.00000000E-05  1.00000000E-05  1.00000000E-05  1.00000000E-05  1.00000000E-05  1.00000000E-05  1.00000000E-05  1.00000000E-05  1.00000000E-05  1.00000000E-05  1.00000000E-05  1.00000000E-05  1.00000000E-05  1.00000000E-05  1.00000000E-05  1.00000000E-05  1.00000000E-05  1.00000000E-05  1.00000000E-05  1.00000000E-05
    1.00000000E-05  1.00000000E-05  1.00000000E-05  1.00000000E-05  1.00000000E-05  1.00000000E-05  1.00000000E-05  1.00000000E-05  1.00000000E-05  1.00000000E-05  1.00000000E-05  1.00000000E-05  1.00000000E-05  1.00000000E-05  1.00000000E-05  1.00000000E-05  1.00000000E-05  1.00000000E-05  1.00000000E-05  1.00000000E-05
    1.00000000E-05  1.00000000E-05  1.00000000E-05  1.00000000E-05  1.00000000E-05  1.00000000E-05  1.00000000E-05  1.00000000E-05  1.00000000E-05  1.00000000E-05  1.00000000E-05  1.00000000E-05  1.00000000E-05  1.00000000E-05  1.00000000E-05  1.00000000E-05  1.00000000E-05  1.00000000E-05  1.00000000E-05  1.00000000E-05