BEGIN options
END options

BEGIN timing
  TDIS6  theis_mf6.tdis
END timing

BEGIN models
  gwf6  first_2D.nam  first_2D
END models

BEGIN exchanges
END exchanges

BEGIN solutiongroup  1
  ims6  theis_mf6.ims  first_2D
END solutiongroup  1

