BEGIN options
  SAVE_FLOWS
END options

BEGIN dimensions
  MAXBOUND  100
END dimensions

BEGIN period  1
  1 108 66     123.00000000
  1 108 67     123.00000000
  1 109 67     123.00000000
  1 109 68     121.79364400
  1 108 68     116.86543249
  1 109 69     111.62650166
  1 109 70     107.41870363
  1 109 71     106.58360270
  1 110 71     105.97801901
  1 110 72     105.21091477
  1 109 72     104.48132829
  1 109 73     101.77647655
  1 109 74      98.00000000
  1 109 75      96.53823795
  1 109 76      92.50839471
  1 108 76      91.68782128
  1 108 77      90.65294616
  1 108 78      89.37269194
  1 107 78      87.15774775
  1 107 79      82.15388209
  1 106 79      81.22008142
  1 106 80      80.22563383
  1 106 81      77.55111230
  1 105 81      77.01886748
  1 105 82      76.83279319
  1 106 82      76.23615349
  1 106 83      75.19439305
  1 106 84      71.54154274
  1 105 84      69.91002196
  1 105 85      68.00000000
  1 104 85      66.83698912
  1 103 85      65.36382354
  1 103 86      64.30954321
  1 104 86      63.00000000
  1 104 87      63.00000000
  1 103 87      61.76347913
  1 102 87      57.32700945
  1 102 88      56.29348456
  1 101 88      55.27886453
  1 100 88      52.21629264
  1 100 89      51.36521874
  1 99 89      50.44921481
  1 98 89      49.56098085
  1 98 90      47.30514390
  1 97 90      46.50490736
  1 97 91      45.89976484
  1 96 91      44.78641359
  1 95 91      41.81036766
  1 94 91      40.53749205
  1 94 92      37.30812721
  1 93 92      36.26299608
  1 93 93      35.26412405
  1 92 93      34.57739836
  1 92 94      32.41640056
  1 92 95      31.75133590
  1 91 95      31.29981962
  1 91 96      30.50249709
  1 91 97      29.61421532
  1 91 98      28.65212963
  1 90 98      27.93351144
  1 90 99      27.37832283
  1 90 100      26.79768074
  1 89 100      26.36232353
  1 89 101      25.62906392
  1 89 102      24.86666080
  1 89 103      24.12133697
  1 89 104      22.36011348
  1 89 105      21.07999614
  1 89 106      19.75790275
  1 89 107      18.37221114
  1 89 108      17.47644663
  1 90 108      16.71722481
  1 90 109      15.44456425
  1 90 110      14.46337506
  1 91 110      13.76748247
  1 91 111      11.52230692
  1 91 112      10.69338846
  1 90 112       9.81903946
  1 89 112       9.20136830
  1 89 113       7.65387801
  1 89 114       7.17705021
  1 88 114       6.78772017
  1 88 115       6.22758776
  1 88 116       5.64414546
  1 88 117       5.04827885
  1 88 118       4.42813717
  1 88 119       3.83588204
  1 88 120       3.24398783
  1 88 121       2.61860375
  1 88 122       2.22934730
  1 87 122       1.82012070
  1 87 123       1.39625192
  1 86 123       0.94979799
  1 86 124       0.54075792
  1 85 124       0.10430706
  1 85 125      -0.31035050
  1 84 125      -0.74455028
  1 84 126      -1.16230331
  1 83 126      -1.58550612
  1 88 131       0.00000000
END period  1

