BEGIN options
  SAVE_FLOWS
END options

BEGIN dimensions
  MAXBOUND  166
END dimensions

BEGIN period  1
  1 180 110     123.00000000
  1 180 111     123.00000000
  1 181 111     123.00000000
  1 181 112     122.08811734
  1 181 113     120.26709581
  1 180 113     117.53319493
  1 180 114     116.46927694
  1 181 114     115.06636643
  1 181 115     113.80372234
  1 182 115     112.69675562
  1 182 116     111.29767779
  1 182 117     107.54438783
  1 182 118     106.59604644
  1 182 119     105.65300789
  1 182 120     104.54965340
  1 182 121     102.20067923
  1 182 122     100.89919551
  1 181 122     100.05066044
  1 181 123      98.00000000
  1 181 124      98.00000000
  1 181 125      96.73749938
  1 181 126      92.56214119
  1 181 127      92.03561163
  1 180 127      91.45115603
  1 180 128      90.51057041
  1 180 129      89.71768715
  1 179 129      89.07105888
  1 179 130      87.41826377
  1 178 130      86.56904154
  1 178 131      85.48310892
  1 178 132      84.55431979
  1 177 132      82.35898079
  1 177 133      81.35967489
  1 176 133      80.58782659
  1 176 134      79.56533413
  1 176 135      77.68761459
  1 175 135      77.26884936
  1 175 136      77.03138251
  1 176 136      76.60043998
  1 176 137      75.88944151
  1 177 137      75.40885725
  1 177 138      74.92627953
  1 177 139      74.12165997
  1 177 140      72.26560390
  1 176 140      70.66623409
  1 175 140      69.55047222
  1 175 141      68.00000000
  1 174 141      68.00000000
  1 173 141      68.00000000
  1 173 142      68.00000000
  1 172 142      67.04542226
  1 172 143      65.31714251
  1 172 144      63.00000000
  1 172 145      63.00000000
  1 171 145      61.78646612
  1 170 145      57.54735294
  1 169 145      56.79882937
  1 169 146      55.95159821
  1 168 146      54.97559483
  1 167 146      54.09875061
  1 166 146      52.61671349
  1 166 147      51.80866811
  1 165 147      51.32956320
  1 165 148      50.63907322
  1 165 149      49.87205689
  1 164 149      49.22620786
  1 163 149      47.73979328
  1 163 150      47.22431258
  1 162 150      46.69766197
  1 162 151      46.28533705
  1 161 151      45.73810706
  1 160 151      45.18082068
  1 160 152      44.76173761
  1 159 152      44.11423659
  1 158 152      42.24881056
  1 157 152      40.79204438
  1 157 153      39.85219563
  1 156 153      37.35101675
  1 155 153      36.36980473
  1 155 154      35.45957467
  1 154 154      34.82022437
  1 154 155      34.09742745
  1 154 156      32.90303253
  1 153 156      32.58362363
  1 153 157      32.19679700
  1 152 157      31.87925155
  1 152 158      31.48910953
  1 152 159      31.01901508
  1 152 160      30.54849606
  1 152 161      30.07511518
  1 152 162      29.58667115
  1 151 162      29.29162494
  1 151 163      28.94332501
  1 151 164      28.58984606
  1 150 164      27.70508069
  1 150 165      27.25764896
  1 149 165      26.92169509
  1 149 166      26.45062011
  1 148 166      26.14839303
  1 148 167      25.84901185
  1 148 168      25.29861704
  1 148 169      24.77874792
  1 148 170      24.27032810
  1 148 171      23.76159637
  1 148 172      23.00000000
  1 148 173      22.60639481
  1 148 174      21.92438307
  1 147 174      21.53055245
  1 147 175      21.03230158
  1 147 176      20.46595092
  1 148 176      20.04778644
  1 148 177      19.38339640
  1 148 178      18.52774065
  1 148 179      18.08518758
  1 149 179      17.65120495
  1 149 180      16.79643589
  1 150 180      16.30857042
  1 150 181      15.80251958
  1 150 182      14.94108706
  1 150 183      14.38229860
  1 151 183      13.95333107
  1 151 184      13.24221992
  1 151 185      11.56030552
  1 151 186      10.63175125
  1 151 187      10.08603504
  1 150 187       9.55020424
  1 149 187       7.79306053
  1 148 187       7.53259495
  1 148 188       7.28419605
  1 148 189       7.01124785
  1 147 189       6.81865526
  1 147 190       6.53771937
  1 146 190       6.29401396
  1 146 191       6.03555918
  1 146 192       5.69205291
  1 146 193       5.36737652
  1 146 194       5.04251425
  1 146 195       4.68704056
  1 146 196       4.42708779
  1 147 196       4.24168060
  1 147 197       3.96049160
  1 147 198       3.63259833
  1 147 199       3.30278582
  1 147 200       2.95406878
  1 147 201       2.76872119
  1 146 201       2.58623293
  1 146 202       2.21399406
  1 146 203       2.02286624
  1 145 203       1.78475939
  1 145 204       1.53201551
  1 144 204       1.28481187
  1 143 204       1.03977121
  1 143 205       0.80448002
  1 142 205       0.54788467
  1 142 206       0.30980283
  1 141 206       0.05833394
  1 141 207      -0.18046400
  1 140 207      -0.43163197
  1 140 208      -0.67042990
  1 139 208      -0.92159787
  1 139 209      -1.16180067
  1 138 209      -1.41538500
  1 138 210      -1.65523978
  1 137 210      -1.90488264
  1 146 217       0.00000000
  1 146 218       0.00000000
END period  1

