BEGIN options
  SAVE_FLOWS
END options

BEGIN dimensions
  MAXBOUND  233
END dimensions

BEGIN period  1
  1 8 221       0.00000000
  1 8 222       0.00000000
  1 8 223       0.00000000
  1 9 223       0.00000000
  1 9 224       0.00000000
  1 9 225       0.00000000
  1 9 226       0.00000000
  1 10 226       0.00000000
  1 10 227       0.00000000
  1 11 227       0.00000000
  1 11 228       0.00000000
  1 12 228       0.00000000
  1 12 229       0.00000000
  1 13 229       0.00000000
  1 14 229       0.00000000
  1 14 230       0.00000000
  1 15 229       0.00000000
  1 16 229       0.00000000
  1 17 229       0.00000000
  1 18 229       0.00000000
  1 19 228       0.00000000
  1 19 229       0.00000000
  1 20 228       0.00000000
  1 21 228       0.00000000
  1 22 228       0.00000000
  1 23 227       0.00000000
  1 23 228       0.00000000
  1 24 227       0.00000000
  1 25 227       0.00000000
  1 26 227       0.00000000
  1 27 227       0.00000000
  1 28 226       0.00000000
  1 28 227       0.00000000
  1 29 226       0.00000000
  1 30 226       0.00000000
  1 31 226       0.00000000
  1 32 226       0.00000000
  1 33 226       0.00000000
  1 34 226       0.00000000
  1 35 226       0.00000000
  1 36 225       0.00000000
  1 36 226       0.00000000
  1 37 225       0.00000000
  1 38 225       0.00000000
  1 39 225       0.00000000
  1 40 225       0.00000000
  1 41 224       0.00000000
  1 41 225       0.00000000
  1 42 224       0.00000000
  1 43 224       0.00000000
  1 44 224       0.00000000
  1 45 224       0.00000000
  1 46 224       0.00000000
  1 47 224       0.00000000
  1 48 223       0.00000000
  1 48 224       0.00000000
  1 49 223       0.00000000
  1 50 223       0.00000000
  1 51 223       0.00000000
  1 52 223       0.00000000
  1 53 223       0.00000000
  1 54 222       0.00000000
  1 54 223       0.00000000
  1 55 222       0.00000000
  1 56 222       0.00000000
  1 57 222       0.00000000
  1 58 222       0.00000000
  1 59 222       0.00000000
  1 60 222       0.00000000
  1 61 222       0.00000000
  1 62 222       0.00000000
  1 63 222       0.00000000
  1 64 222       0.00000000
  1 65 222       0.00000000
  1 66 221       0.00000000
  1 66 222       0.00000000
  1 67 221       0.00000000
  1 68 221       0.00000000
  1 69 221       0.00000000
  1 70 221       0.00000000
  1 71 221       0.00000000
  1 72 221       0.00000000
  1 73 221       0.00000000
  1 74 221       0.00000000
  1 75 221       0.00000000
  1 76 221       0.00000000
  1 77 221       0.00000000
  1 78 221       0.00000000
  1 79 221       0.00000000
  1 80 221       0.00000000
  1 81 221       0.00000000
  1 82 221       0.00000000
  1 83 221       0.00000000
  1 84 221       0.00000000
  1 85 221       0.00000000
  1 86 221       0.00000000
  1 87 221       0.00000000
  1 88 221       0.00000000
  1 89 221       0.00000000
  1 90 221       0.00000000
  1 91 221       0.00000000
  1 92 221       0.00000000
  1 93 221       0.00000000
  1 94 221       0.00000000
  1 95 221       0.00000000
  1 96 221       0.00000000
  1 97 221       0.00000000
  1 98 221       0.00000000
  1 99 221       0.00000000
  1 100 221       0.00000000
  1 101 221       0.00000000
  1 102 221       0.00000000
  1 103 221       0.00000000
  1 104 221       0.00000000
  1 105 221       0.00000000
  1 106 221       0.00000000
  1 107 221       0.00000000
  1 108 221       0.00000000
  1 109 221       0.00000000
  1 110 221       0.00000000
  1 111 221       0.00000000
  1 112 221       0.00000000
  1 113 221       0.00000000
  1 113 222       0.00000000
  1 114 222       0.00000000
  1 115 221       0.00000000
  1 115 222       0.00000000
  1 116 221       0.00000000
  1 117 221       0.00000000
  1 118 221       0.00000000
  1 119 221       0.00000000
  1 120 221       0.00000000
  1 121 221       0.00000000
  1 122 221       0.00000000
  1 123 220       0.00000000
  1 123 221       0.00000000
  1 124 220       0.00000000
  1 125 220       0.00000000
  1 126 220       0.00000000
  1 127 220       0.00000000
  1 128 220       0.00000000
  1 129 220       0.00000000
  1 130 220       0.00000000
  1 131 220       0.00000000
  1 132 220       0.00000000
  1 133 219       0.00000000
  1 133 220       0.00000000
  1 134 219       0.00000000
  1 135 219       0.00000000
  1 136 219       0.00000000
  1 137 219       0.00000000
  1 138 219       0.00000000
  1 139 219       0.00000000
  1 140 219       0.00000000
  1 141 219       0.00000000
  1 142 219       0.00000000
  1 143 219       0.00000000
  1 144 219       0.00000000
  1 145 219       0.00000000
  1 146 219       0.00000000
  1 147 219       0.00000000
  1 148 219       0.00000000
  1 149 219       0.00000000
  1 150 219       0.00000000
  1 150 220       0.00000000
  1 151 220       0.00000000
  1 152 220       0.00000000
  1 153 220       0.00000000
  1 154 220       0.00000000
  1 155 220       0.00000000
  1 156 220       0.00000000
  1 157 220       0.00000000
  1 158 220       0.00000000
  1 159 220       0.00000000
  1 160 220       0.00000000
  1 161 220       0.00000000
  1 161 221       0.00000000
  1 162 221       0.00000000
  1 163 221       0.00000000
  1 164 221       0.00000000
  1 165 221       0.00000000
  1 166 221       0.00000000
  1 167 221       0.00000000
  1 167 222       0.00000000
  1 168 222       0.00000000
  1 169 222       0.00000000
  1 170 222       0.00000000
  1 171 222       0.00000000
  1 172 222       0.00000000
  1 172 223       0.00000000
  1 173 223       0.00000000
  1 174 223       0.00000000
  1 175 223       0.00000000
  1 176 223       0.00000000
  1 177 223       0.00000000
  1 178 223       0.00000000
  1 178 224       0.00000000
  1 179 224       0.00000000
  1 180 224       0.00000000
  1 181 224       0.00000000
  1 182 224       0.00000000
  1 183 224       0.00000000
  1 184 224       0.00000000
  1 185 224       0.00000000
  1 186 224       0.00000000
  1 187 224       0.00000000
  1 188 224       0.00000000
  1 189 224       0.00000000
  1 190 224       0.00000000
  1 191 224       0.00000000
  1 192 224       0.00000000
  1 193 224       0.00000000
  1 194 224       0.00000000
  1 195 224       0.00000000
  1 195 225       0.00000000
  1 196 225       0.00000000
  1 197 225       0.00000000
  1 198 225       0.00000000
  1 199 225       0.00000000
  1 200 225       0.00000000
  1 200 226       0.00000000
  1 201 226       0.00000000
  1 202 226       0.00000000
  1 203 226       0.00000000
  1 203 227       0.00000000
  1 204 227       0.00000000
  1 205 227       0.00000000
  1 205 228       0.00000000
  1 206 228       0.00000000
  1 206 229       0.00000000
  1 207 229       0.00000000
  1 207 230       0.00000000
  1 208 230       0.00000000
END period  1

