BEGIN options
  SAVE_FLOWS
END options

BEGIN dimensions
  MAXBOUND  138
END dimensions

BEGIN period  1
  1 5 133       0.00000000
  1 5 134       0.00000000
  1 5 135       0.00000000
  1 6 135       0.00000000
  1 6 136       0.00000000
  1 6 137       0.00000000
  1 7 137       0.00000000
  1 8 137       0.00000000
  1 8 138       0.00000000
  1 9 138       0.00000000
  1 10 138       0.00000000
  1 11 137       0.00000000
  1 11 138       0.00000000
  1 12 137       0.00000000
  1 13 137       0.00000000
  1 14 137       0.00000000
  1 15 136       0.00000000
  1 15 137       0.00000000
  1 16 136       0.00000000
  1 17 136       0.00000000
  1 18 136       0.00000000
  1 19 136       0.00000000
  1 20 136       0.00000000
  1 21 136       0.00000000
  1 22 135       0.00000000
  1 22 136       0.00000000
  1 23 135       0.00000000
  1 24 135       0.00000000
  1 25 135       0.00000000
  1 26 135       0.00000000
  1 27 134       0.00000000
  1 27 135       0.00000000
  1 28 134       0.00000000
  1 29 134       0.00000000
  1 30 134       0.00000000
  1 31 134       0.00000000
  1 32 134       0.00000000
  1 33 134       0.00000000
  1 34 134       0.00000000
  1 35 133       0.00000000
  1 35 134       0.00000000
  1 36 133       0.00000000
  1 37 133       0.00000000
  1 38 133       0.00000000
  1 39 133       0.00000000
  1 40 133       0.00000000
  1 41 133       0.00000000
  1 42 133       0.00000000
  1 43 133       0.00000000
  1 44 133       0.00000000
  1 45 133       0.00000000
  1 46 133       0.00000000
  1 47 133       0.00000000
  1 48 133       0.00000000
  1 49 133       0.00000000
  1 50 133       0.00000000
  1 51 133       0.00000000
  1 52 133       0.00000000
  1 53 133       0.00000000
  1 54 133       0.00000000
  1 55 133       0.00000000
  1 56 133       0.00000000
  1 57 133       0.00000000
  1 58 133       0.00000000
  1 59 133       0.00000000
  1 60 133       0.00000000
  1 61 133       0.00000000
  1 62 133       0.00000000
  1 63 133       0.00000000
  1 64 133       0.00000000
  1 65 133       0.00000000
  1 66 133       0.00000000
  1 67 133       0.00000000
  1 68 133       0.00000000
  1 69 133       0.00000000
  1 70 133       0.00000000
  1 71 133       0.00000000
  1 72 133       0.00000000
  1 73 133       0.00000000
  1 74 132       0.00000000
  1 74 133       0.00000000
  1 75 132       0.00000000
  1 76 132       0.00000000
  1 77 132       0.00000000
  1 78 132       0.00000000
  1 79 132       0.00000000
  1 80 132       0.00000000
  1 81 132       0.00000000
  1 82 132       0.00000000
  1 83 132       0.00000000
  1 84 132       0.00000000
  1 85 132       0.00000000
  1 86 132       0.00000000
  1 87 132       0.00000000
  1 88 132       0.00000000
  1 89 132       0.00000000
  1 90 132       0.00000000
  1 91 132       0.00000000
  1 92 132       0.00000000
  1 93 132       0.00000000
  1 94 132       0.00000000
  1 95 132       0.00000000
  1 96 132       0.00000000
  1 97 132       0.00000000
  1 97 133       0.00000000
  1 98 133       0.00000000
  1 99 133       0.00000000
  1 100 133       0.00000000
  1 101 133       0.00000000
  1 102 133       0.00000000
  1 102 134       0.00000000
  1 103 134       0.00000000
  1 104 134       0.00000000
  1 105 134       0.00000000
  1 106 134       0.00000000
  1 107 134       0.00000000
  1 108 134       0.00000000
  1 108 135       0.00000000
  1 109 135       0.00000000
  1 110 135       0.00000000
  1 111 135       0.00000000
  1 112 135       0.00000000
  1 113 135       0.00000000
  1 114 135       0.00000000
  1 115 135       0.00000000
  1 116 135       0.00000000
  1 117 135       0.00000000
  1 118 135       0.00000000
  1 119 135       0.00000000
  1 120 135       0.00000000
  1 120 136       0.00000000
  1 121 136       0.00000000
  1 122 136       0.00000000
  1 123 136       0.00000000
  1 123 137       0.00000000
  1 124 137       0.00000000
  1 124 138       0.00000000
  1 125 138       0.00000000
END period  1

