BEGIN options
  SAVE_FLOWS
END options

BEGIN dimensions
  MAXBOUND  102
END dimensions

BEGIN period  1
  1 137 59     129.12401225
  1 137 60     126.96764275
  1 136 60     125.63199948
  1 136 61     124.26057913
  1 136 62     121.65367558
  1 136 63     120.03831240
  1 137 63     118.71587507
  1 136 64     114.91507489
  1 136 65     112.73268763
  1 135 65     110.48575044
  1 135 66     109.04735615
  1 134 66     106.25949458
  1 133 66     103.58376380
  1 133 67     101.13980774
  1 133 68      98.59170269
  1 133 69      96.05742044
  1 133 70      93.52128486
  1 133 71      90.99124144
  1 133 72      88.46573747
  1 133 73      86.18377921
  1 132 73      84.81988648
  1 132 74      82.99863232
  1 132 75      80.86552799
  1 131 75      79.15453977
  1 131 76      76.98968513
  1 130 76      75.40066823
  1 127 82      60.28382992
  1 128 84      57.88462572
  1 127 84      56.57674958
  1 126 84      55.07860776
  1 125 84      54.06654429
  1 125 85      53.15554504
  1 125 86      51.93877723
  1 124 87      50.43370273
  1 124 88      49.57952948
  1 123 88      48.63488269
  1 123 89      47.77634914
  1 122 89      47.05359014
  1 122 90      45.97636133
  1 121 90      45.26290883
  1 121 91      44.31898055
  1 120 91      43.53211196
  1 120 92      42.74363701
  1 120 93      41.45203146
  1 119 93      40.78560332
  1 120 94      40.13610174
  1 119 94      39.53865112
  1 119 95      38.68339832
  1 118 95      37.75557834
  1 118 96      36.91716520
  1 118 97      35.98396970
  1 117 97      35.32315597
  1 117 98      34.17958482
  1 117 99      33.39071423
  1 116 99      32.79586267
  1 116 100      31.46923016
  1 116 101      30.62036475
  1 115 101      29.93990675
  1 114 101      28.61332518
  1 113 101      27.36504153
  1 113 102      25.21882050
  1 112 102      24.66635486
  1 113 103      23.99139687
  1 113 104      23.00477353
  1 114 104      22.42193776
  1 114 105      21.77086763
  1 113 105      21.25371954
  1 113 106      20.48504610
  1 113 107      19.72216788
  1 112 107      19.05878141
  1 111 107      18.01092095
  1 111 108      17.27397624
  1 110 108      16.63617344
  1 110 109      15.75550125
  1 110 110      14.71577067
  1 110 111      13.68317241
  1 110 112      12.65185576
  1 110 113      11.64448386
  1 110 114      10.61938548
  1 110 115       9.59430129
  1 110 116       8.58550905
  1 110 117       7.56126475
  1 110 118       6.86677277
  1 109 118       6.35642657
  1 109 119       4.84973220
  1 109 120       4.55164840
  1 109 121       4.25356913
  1 109 122       3.99164801
  1 110 122       3.83108543
  1 110 123       3.61442263
  1 110 124       3.29762978
  1 110 125       2.99814613
  1 110 126       2.69950871
  1 110 127       2.39718484
  1 110 128       2.08546189
  1 110 129       1.79837990
  1 109 129       1.63862052
  1 109 130       1.45073368
  1 109 131       1.14131193
  1 109 132       0.83771203
  1 109 133       0.60549996
  1 108 133       0.44691459
END period  1

