BEGIN options
  SAVE_FLOWS
END options

BEGIN dimensions
  MAXBOUND  162
END dimensions

BEGIN period  1
  1 227 98     129.38717772
  1 227 99     128.63845864
  1 228 99     127.88246384
  1 228 100     127.22290823
  1 227 100     126.41454925
  1 227 101     124.85201388
  1 227 102     123.30796688
  1 227 103     121.79239432
  1 227 104     120.24805459
  1 227 107     115.23559444
  1 227 108     113.66924876
  1 226 109     111.81095793
  1 225 109     110.09649530
  1 224 109     108.38468579
  1 223 109     106.66328887
  1 223 110     105.76808632
  1 222 110     104.83966398
  1 221 110     103.39664488
  1 221 111     102.09955467
  1 221 112     100.58635271
  1 221 113      99.08302080
  1 221 114      97.59177232
  1 221 115      96.09016926
  1 221 116      94.58788622
  1 221 117      93.09385794
  1 221 118      91.59895850
  1 221 119      90.10550411
  1 221 120      88.61594457
  1 221 121      87.10249178
  1 221 122      86.09649377
  1 220 122      85.22503727
  1 220 123      83.73432114
  1 220 124      82.76068389
  1 219 124      81.75839957
  1 219 125      80.54133126
  1 218 125      79.55711810
  1 218 126      78.27257775
  1 217 126      77.28305170
  1 213 139      58.21348513
  1 213 140      57.68428221
  1 212 140      57.25714540
  1 210 139      55.50703888
  1 210 140      55.03569593
  1 209 140      54.33067855
  1 208 140      53.77459605
  1 208 141      53.22488259
  1 208 142      52.47156149
  1 208 143      51.83204870
  1 207 143      51.47443727
  1 207 144      51.00442972
  1 207 145      50.33406779
  1 206 145      49.82698694
  1 206 146      49.35988408
  1 205 146      48.71702966
  1 205 147      48.22595295
  1 204 147      47.75194991
  1 204 148      47.17063723
  1 203 148      46.73544379
  1 203 149      46.06431927
  1 203 150      45.63166031
  1 202 150      45.18870684
  1 202 151      44.57918196
  1 201 151      44.10171424
  1 201 152      43.54201825
  1 200 152      43.06886375
  1 200 153      42.45307825
  1 199 153      42.01301230
  1 199 154      41.55677784
  1 199 155      40.73354542
  1 199 156      39.97234405
  1 199 157      39.22383287
  1 199 158      38.79689428
  1 198 158      38.25992349
  1 197 158      37.71789868
  1 197 159      37.17001262
  1 197 160      36.66027846
  1 196 160      36.21880989
  1 196 161      35.55795907
  1 195 161      35.14298495
  1 195 162      34.57032378
  1 195 163      33.89174440
  1 194 163      33.46755198
  1 194 164      32.92375180
  1 194 165      32.15579538
  1 194 166      31.62111711
  1 193 166      31.17700436
  1 193 167      30.67432394
  1 192 167      29.98991179
  1 191 167      29.15537940
  1 190 167      28.64105830
  1 190 168      28.22420046
  1 189 168      27.52835473
  1 188 168      26.80720099
  1 188 169      26.20091096
  1 187 169      25.60339041
  1 187 170      25.17519429
  1 187 171      24.64579371
  1 188 171      24.28787665
  1 188 172      23.73813579
  1 188 173      23.30882437
  1 189 173      22.94640086
  1 189 174      22.31390578
  1 189 175      21.68070769
  1 189 176      21.21715764
  1 188 176      20.78850742
  1 188 177      20.30412978
  1 187 177      19.79297164
  1 187 178      19.38354590
  1 186 178      18.92556635
  1 185 178      18.26615666
  1 185 179      17.84176420
  1 184 179      17.39291601
  1 184 180      16.84971592
  1 183 180      16.48653239
  1 183 181      16.01122730
  1 183 182      15.35940499
  1 183 183      14.73409690
  1 183 184      14.10036656
  1 183 185      13.45687839
  1 183 186      12.82921929
  1 183 187      12.21123432
  1 183 188      11.59341168
  1 183 189      10.96766427
  1 183 190      10.33072977
  1 183 191       9.70028970
  1 183 192       9.08125765
  1 183 193       8.46311186
  1 183 194       7.84071233
  1 183 195       7.47432882
  1 182 195       7.15198071
  1 182 196       6.56960873
  1 182 197       5.94297947
  1 182 198       4.90828584
  1 182 199       4.72665124
  1 182 200       4.54699917
  1 182 201       4.36722393
  1 182 202       4.18275880
  1 182 203       3.99357729
  1 182 204       3.85045169
  1 183 204       3.74407207
  1 183 205       3.58713694
  1 183 206       3.39735095
  1 183 207       3.21639056
  1 183 208       3.03473309
  1 183 209       2.85244798
  1 183 210       2.67173989
  1 183 211       2.48671611
  1 183 212       2.29875828
  1 183 213       2.11011281
  1 183 214       1.94060763
  1 182 214       1.84488110
  1 182 215       1.72500799
  1 182 216       1.53032234
  1 182 217       1.37513658
  1 181 217       1.28158130
  1 181 218       1.15424056
  1 181 219       0.96981897
  1 181 220       0.78539739
  1 181 221       0.61177610
  1 180 221       0.51555965
  1 180 222       0.40433940
  1 180 223       0.21489998
END period  1

