BEGIN options
  SAVE_FLOWS
END options

BEGIN dimensions
  MAXBOUND  162
END dimensions

BEGIN period  1
  1 227 98     130.38717772
  1 227 99     129.63845864
  1 228 99     128.88246384
  1 228 100     128.22290823
  1 227 100     127.41454925
  1 227 101     125.85201388
  1 227 102     124.30796688
  1 227 103     122.79239432
  1 227 104     121.24805459
  1 227 107     116.23559444
  1 227 108     114.66924876
  1 226 109     112.81095793
  1 225 109     111.09649530
  1 224 109     109.38468579
  1 223 109     107.66328887
  1 223 110     106.76808632
  1 222 110     105.83966398
  1 221 110     104.39664488
  1 221 111     103.09955467
  1 221 112     101.58635271
  1 221 113     100.08302080
  1 221 114      98.59177232
  1 221 115      97.09016926
  1 221 116      95.58788622
  1 221 117      94.09385794
  1 221 118      92.59895850
  1 221 119      91.10550411
  1 221 120      89.61594457
  1 221 121      88.10249178
  1 221 122      87.09649377
  1 220 122      86.22503727
  1 220 123      84.73432114
  1 220 124      83.76068389
  1 219 124      82.75839957
  1 219 125      81.54133126
  1 218 125      80.55711810
  1 218 126      79.27257775
  1 217 126      78.28305170
  1 213 139      59.21348513
  1 213 140      58.68428221
  1 212 140      58.25714540
  1 210 139      56.50703888
  1 210 140      56.03569593
  1 209 140      55.33067855
  1 208 140      54.77459605
  1 208 141      54.22488259
  1 208 142      53.47156149
  1 208 143      52.83204870
  1 207 143      52.47443727
  1 207 144      52.00442972
  1 207 145      51.33406779
  1 206 145      50.82698694
  1 206 146      50.35988408
  1 205 146      49.71702966
  1 205 147      49.22595295
  1 204 147      48.75194991
  1 204 148      48.17063723
  1 203 148      47.73544379
  1 203 149      47.06431927
  1 203 150      46.63166031
  1 202 150      46.18870684
  1 202 151      45.57918196
  1 201 151      45.10171424
  1 201 152      44.54201825
  1 200 152      44.06886375
  1 200 153      43.45307825
  1 199 153      43.01301230
  1 199 154      42.55677784
  1 199 155      41.73354542
  1 199 156      40.97234405
  1 199 157      40.22383287
  1 199 158      39.79689428
  1 198 158      39.25992349
  1 197 158      38.71789868
  1 197 159      38.17001262
  1 197 160      37.66027846
  1 196 160      37.21880989
  1 196 161      36.55795907
  1 195 161      36.14298495
  1 195 162      35.57032378
  1 195 163      34.89174440
  1 194 163      34.46755198
  1 194 164      33.92375180
  1 194 165      33.15579538
  1 194 166      32.62111711
  1 193 166      32.17700436
  1 193 167      31.67432394
  1 192 167      30.98991179
  1 191 167      30.15537940
  1 190 167      29.64105830
  1 190 168      29.22420046
  1 189 168      28.52835473
  1 188 168      27.80720099
  1 188 169      27.20091096
  1 187 169      26.60339041
  1 187 170      26.17519429
  1 187 171      25.64579371
  1 188 171      25.28787665
  1 188 172      24.73813579
  1 188 173      24.30882437
  1 189 173      23.94640086
  1 189 174      23.31390578
  1 189 175      22.68070769
  1 189 176      22.21715764
  1 188 176      21.78850742
  1 188 177      21.30412978
  1 187 177      20.79297164
  1 187 178      20.38354590
  1 186 178      19.92556635
  1 185 178      19.26615666
  1 185 179      18.84176420
  1 184 179      18.39291601
  1 184 180      17.84971592
  1 183 180      17.48653239
  1 183 181      17.01122730
  1 183 182      16.35940499
  1 183 183      15.73409690
  1 183 184      15.10036656
  1 183 185      14.45687839
  1 183 186      13.82921929
  1 183 187      13.21123432
  1 183 188      12.59341168
  1 183 189      11.96766427
  1 183 190      11.33072977
  1 183 191      10.70028970
  1 183 192      10.08125765
  1 183 193       9.46311186
  1 183 194       8.84071233
  1 183 195       8.47432882
  1 182 195       8.15198071
  1 182 196       7.56960873
  1 182 197       6.94297947
  1 182 198       5.88956866
  1 182 199       5.67086577
  1 182 200       5.45455002
  1 182 201       5.23808596
  1 182 202       5.01597488
  1 182 203       4.78818490
  1 182 204       4.61584999
  1 183 204       4.48776025
  1 183 205       4.29879754
  1 183 206       4.07027972
  1 183 207       3.85238863
  1 183 208       3.63365821
  1 183 209       3.41417205
  1 183 210       3.19658477
  1 183 211       2.97380103
  1 183 212       2.74748446
  1 183 213       2.52033991
  1 183 214       2.31624184
  1 182 214       2.20097928
  1 182 215       2.05664227
  1 182 216       1.82222486
  1 182 217       1.63536853
  1 181 217       1.52272034
  1 181 218       1.36939169
  1 181 219       1.14733305
  1 181 220       0.92527440
  1 181 221       0.71622020
  1 180 221       0.60036774
  1 180 222       0.46644949
  1 180 223       0.23834896
END period  1

