BEGIN options
  SAVE_FLOWS
END options

BEGIN dimensions
  MAXBOUND  263
END dimensions

BEGIN period  1
  1 143 26     161.12208193
  1 144 26     160.19459128
  1 144 27     159.31976610
  1 143 27     158.31344769
  1 143 28     155.50011484
  1 143 29     154.48979933
  1 143 30     152.48179324
  1 143 31     151.44506347
  1 143 32     150.41007603
  1 143 33     149.37758608
  1 143 34     148.34552855
  1 143 35     147.31343248
  1 143 36     146.51982902
  1 142 36     145.94173613
  1 142 37     145.19351777
  1 141 37     144.15847024
  1 140 37     142.97869662
  1 139 37     141.83708501
  1 139 38     140.99669738
  1 138 38     140.36223662
  1 138 39     139.49302190
  1 137 39     138.74756240
  1 137 40     137.87795193
  1 136 40     137.19467746
  1 136 41     136.61709569
  1 136 42     135.55447638
  1 136 43     134.51955203
  1 136 44     133.47056938
  1 136 45     132.41699181
  1 136 46     131.35918422
  1 136 47     130.61622998
  1 135 47     130.04374075
  1 135 48     129.06818220
  1 134 48     127.74445200
  1 134 49     127.00899150
  1 133 49     125.83987903
  1 132 49     123.67786293
  1 132 50     123.30349960
  1 131 50     122.79186245
  1 131 51     122.29640259
  1 130 51     121.83648506
  1 130 52     121.31495302
  1 129 52     120.91205379
  1 129 53     120.31814446
  1 128 53     119.87357032
  1 128 54     119.38739042
  1 127 54     118.93616763
  1 127 55     117.09915638
  1 126 55     116.04076299
  1 126 56     115.16365363
  1 126 57     112.58350457
  1 126 58     111.75606579
  1 126 59     111.29447916
  1 127 59     110.87911854
  1 127 60     110.10102660
  1 127 61     109.53190136
  1 126 61     109.10483665
  1 126 62     107.43121981
  1 126 63     106.13442135
  1 126 64     105.40405462
  1 125 64     104.77749418
  1 125 65     103.00000000
  1 125 66     103.00000000
  1 125 67     103.00000000
  1 124 67     101.47884171
  1 124 68      97.79065810
  1 123 68      97.24360257
  1 123 69      96.57960596
  1 124 69      96.17955859
  1 124 70      95.78610740
  1 124 71      95.16731502
  1 124 72      94.55295452
  1 124 73      93.91702833
  1 124 74      93.46491736
  1 125 74      93.00000000
  1 125 75      93.00000000
  1 125 76      93.00000000
  1 125 77      93.00000000
  1 125 78      93.00000000
  1 126 78      93.00000000
  1 126 79      92.12048299
  1 126 80      90.43894396
  1 126 81      88.00000000
  1 126 82      88.00000000
  1 127 82      88.00000000
  1 127 83      88.00000000
  1 127 84      88.00000000
  1 127 85      87.19121568
  1 127 86      86.08213058
  1 128 86      85.21121016
  1 128 87      82.50485728
  1 128 88      81.49739604
  1 128 89      80.51285739
  1 129 89      79.97479631
  1 129 90      79.44044989
  1 129 91      77.61359348
  1 129 92      76.77095057
  1 130 92      76.29447254
  1 130 93      75.77495069
  1 130 94      75.14710792
  1 131 94      74.75779639
  1 131 95      74.11935966
  1 131 96      72.50420304
  1 131 97      71.51320173
  1 131 98      70.51436056
  1 131 99      69.76525692
  1 132 99      69.25031689
  1 132 100      67.18525301
  1 132 101      65.53823186
  1 132 102      63.00000000
  1 132 103      63.00000000
  1 132 104      63.00000000
  1 131 104      63.00000000
  1 131 105      63.00000000
  1 132 105      63.00000000
  1 132 106      63.00000000
  1 132 107      62.31485208
  1 132 108      60.93089198
  1 132 109      59.48002282
  1 132 110      58.00000000
  1 133 110      58.00000000
  1 133 111      57.58818217
  1 133 112      56.76183213
  1 133 113      56.10887611
  1 132 113      55.59226067
  1 132 114      54.90114205
  1 131 114      54.39392987
  1 131 115      53.88765990
  1 131 116      53.00000000
  1 132 116      53.00000000
  1 132 117      52.57926527
  1 132 118      52.13041053
  1 131 118      51.69972993
  1 131 119      50.88998975
  1 131 120      50.07605282
  1 131 121      49.24813441
  1 131 122      48.00000000
  1 131 123      48.00000000
  1 130 123      48.00000000
  1 130 124      48.00000000
  1 130 125      48.00000000
  1 130 126      48.00000000
  1 130 127      47.41350714
  1 129 127      46.79370463
  1 129 128      46.13203489
  1 129 129      44.86474003
  1 129 130      43.00000000
  1 129 131      42.35768282
  1 129 132      41.04809298
  1 129 133      38.80154806
  1 129 134      38.53918231
  1 128 134      38.00000000
  1 128 135      38.00000000
  1 127 135      38.00000000
  1 127 136      38.00000000
  1 127 137      37.19271285
  1 127 138      35.56400480
  1 127 139      34.41733518
  1 126 139      33.00000000
  1 126 140      33.00000000
  1 126 141      33.00000000
  1 125 141      33.00000000
  1 125 142      33.00000000
  1 125 143      33.00000000
  1 125 144      32.15897294
  1 125 145      30.48829732
  1 125 146      28.00000000
  1 125 147      28.00000000
  1 125 148      28.00000000
  1 125 149      28.00000000
  1 124 149      28.00000000
  1 124 150      28.00000000
  1 124 151      28.00000000
  1 124 152      28.00000000
  1 124 153      28.00000000
  1 124 154      28.00000000
  1 123 154      28.00000000
  1 123 155      28.00000000
  1 123 156      27.50043559
  1 123 157      26.50636559
  1 123 158      25.62303749
  1 122 158      25.13181099
  1 122 159      24.53211721
  1 122 160      22.69444053
  1 122 161      22.09068952
  1 121 161      21.77767534
  1 121 162      21.45523357
  1 121 163      20.84250346
  1 121 164      20.30342583
  1 120 164      19.99361967
  1 120 165      19.57470826
  1 120 166      18.97602101
  1 119 166      18.66696138
  1 119 167      17.72373417
  1 119 168      17.18337489
  1 119 169      16.65264505
  1 119 170      16.30294813
  1 118 170      16.02855397
  1 118 171      15.56049196
  1 118 172      15.00661178
  1 118 173      14.70694221
  1 117 173      14.43609984
  1 117 174      13.92934024
  1 117 175      13.40186361
  1 117 176      12.89002945
  1 116 176      12.60028380
  1 116 177      11.87430056
  1 116 178      11.62777488
  1 116 179      11.38701801
  1 116 180      11.14935227
  1 116 181      10.90737076
  1 116 182      10.69602964
  1 117 182      10.57133748
  1 117 183      10.40904790
  1 117 184      10.16470680
  1 117 185       9.92611673
  1 117 186       9.69017307
  1 117 187       9.45577899
  1 117 188       9.21933979
  1 117 189       8.98238398
  1 117 190       8.74710428
  1 117 191       8.51199645
  1 117 192       8.27169964
  1 117 193       8.03071963
  1 117 194       7.79400136
  1 117 195       7.55902822
  1 117 196       7.32334108
  1 117 197       7.07605069
  1 117 198       6.83824734
  1 116 198       6.71518388
  1 116 199       6.58464799
  1 116 200       6.38121207
  1 117 200       6.25839212
  1 117 201       6.09353132
  1 117 202       5.87300647
  1 118 202       5.71002905
  1 118 203       5.52676272
  1 119 203       5.37203588
  1 119 204       5.20662530
  1 119 205       4.96461537
  1 119 206       4.76110667
  1 118 206       4.62436426
  1 118 207       4.43624626
  1 117 207       4.25669394
  1 117 208       4.10289675
  1 116 208       3.92042671
  1 116 209       3.72968249
  1 116 210       3.49195841
  1 116 211       3.32516182
  1 117 211       3.20064691
  1 117 212       2.99207723
  1 117 213       2.78868331
  1 118 213       2.64104032
  1 118 214       2.43279580
  1 119 214       2.28388728
  1 119 215       2.12224305
  1 119 216       1.85678286
  1 119 217       1.60330554
  1 119 218       1.38644429
  1 118 218       1.24743883
  1 118 219       1.05293478
  1 118 220       0.87133335
  1 117 220       0.72692035
END period  1

