BEGIN options
  SAVE_FLOWS
END options

BEGIN dimensions
  MAXBOUND  158
END dimensions

BEGIN period  1
  1 86 15     173.62998224
  1 86 16     158.00000000
  1 86 17     156.75319065
  1 86 18     152.05440207
  1 86 19     150.18366506
  1 86 20     148.33633429
  1 86 21     146.49200305
  1 86 22     144.92853024
  1 85 22     143.19900798
  1 84 22     141.12991778
  1 84 23     139.97033941
  1 83 23     138.82763019
  1 83 24     137.22454317
  1 82 24     135.91213290
  1 82 25     134.28429369
  1 82 26     132.39933433
  1 82 27     130.53098494
  1 82 28     128.00000000
  1 81 28     128.00000000
  1 81 29     128.00000000
  1 80 29     127.81676945
  1 80 30     126.78946238
  1 79 30     124.84618512
  1 79 31     123.69117307
  1 78 31     122.56327727
  1 78 32     121.13495613
  1 77 32     120.00360848
  1 77 33     118.00000000
  1 76 33     116.96991564
  1 76 34     113.00000000
  1 76 35     112.37697149
  1 76 36     111.12776869
  1 76 37     109.86221612
  1 76 38     106.91555734
  1 75 38     105.57404027
  1 75 39     103.00000000
  1 75 40     101.18484802
  1 75 41      98.00000000
  1 74 41      97.44672138
  1 74 42      96.53280273
  1 75 42      96.01107366
  1 75 43      95.39017850
  1 75 44      94.44885383
  1 75 45      93.00000000
  1 75 46      93.00000000
  1 75 47      93.00000000
  1 76 47      93.00000000
  1 76 48      91.79376332
  1 76 49      88.00000000
  1 76 50      88.00000000
  1 76 51      87.29713104
  1 77 51      86.09003293
  1 77 52      82.29043989
  1 77 53      80.88521138
  1 77 54      79.51699341
  1 77 55      77.62653096
  1 78 55      76.99612015
  1 78 56      76.01286719
  1 79 56      75.27840404
  1 79 57      74.69735803
  1 79 58      72.17406681
  1 79 59      70.50727578
  1 79 60      66.76321249
  1 79 61      63.00000000
  1 79 62      63.00000000
  1 79 63      63.00000000
  1 79 64      62.20177637
  1 79 65      60.58825004
  1 79 66      59.47056481
  1 80 66      58.00000000
  1 80 67      57.42152697
  1 80 68      56.34916812
  1 79 68      55.65865782
  1 79 69      54.82041049
  1 79 70      53.83732005
  1 79 71      55.52654297
  1 79 72      56.76683735
  1 79 73      51.26678085
  1 79 74      48.00000000
  1 78 74      48.00000000
  1 78 75      48.00000000
  1 78 76      48.00000000
  1 78 77      46.73573585
  1 78 78      43.00000000
  1 78 79      43.00000000
  1 77 79      43.00000000
  1 77 80      43.00000000
  1 78 80      42.00098276
  1 77 81      38.00000000
  1 76 81      38.00000000
  1 76 82      38.00000000
  1 76 83      36.77462666
  1 76 84      33.00000000
  1 76 85      33.00000000
  1 75 85      33.00000000
  1 75 86      33.00000000
  1 75 87      31.74930584
  1 75 88      28.00000000
  1 75 89      28.00000000
  1 75 90      28.00000000
  1 75 91      28.00000000
  1 75 92      28.00000000
  1 74 92      28.00000000
  1 74 93      28.00000000
  1 74 94      27.31612821
  1 74 95      25.95333403
  1 74 96      24.89636697
  1 73 96      24.19143295
  1 73 97      23.14371060
  1 73 98      21.70811670
  1 73 99      20.80767335
  1 72 99      20.03565445
  1 72 100      17.74076951
  1 72 101      17.27069463
  1 71 101      17.02598410
  1 71 102      16.74009924
  1 71 103      16.23132421
  1 71 104      15.72492094
  1 71 105      15.41425129
  1 70 105      15.16888058
  1 70 106      14.71954583
  1 70 107      14.20673382
  1 70 108      13.71813681
  1 70 109      13.22360494
  1 70 110      12.71737326
  1 70 111      12.36078083
  1 71 111      12.11784987
  1 71 112      11.74069522
  1 71 113      11.38664020
  1 70 113      11.14395327
  1 70 114      10.77760134
  1 70 115      10.29466815
  1 70 116       9.95128450
  1 71 116       9.70758558
  1 71 117       9.32448302
  1 71 118       8.93149846
  1 70 118       8.68132837
  1 70 119       8.33401752
  1 70 120       7.83753204
  1 70 121       7.39827950
  1 71 121       7.10825882
  1 71 122       6.70375519
  1 71 123       6.34424779
  1 72 123       6.10028619
  1 71 124       5.60464053
  1 71 125       5.20644379
  1 70 125       4.85024153
  1 70 126       4.34721121
  1 70 127       3.84604397
  1 70 128       3.53704982
  1 71 128       3.24026269
  1 71 129       2.81245836
  1 72 129       2.51370526
  1 72 130       2.14257157
  1 72 131       1.82914294
  1 71 131       1.54446005
  1 71 132       1.06209226
  1 70 132       0.77328152
END period  1

