BEGIN options
  SAVE_FLOWS
END options

BEGIN dimensions
  MAXBOUND  263
END dimensions

BEGIN period  1
  1 143 26     160.26961820
  1 144 26     158.00000000
  1 144 27     158.00000000
  1 143 27     158.00000000
  1 143 28     157.16685807
  1 143 29     155.48299889
  1 143 30     152.41583767
  1 143 31     151.24715652
  1 143 32     150.08043944
  1 143 33     148.91653774
  1 143 34     147.75312349
  1 143 35     146.58966580
  1 143 36     145.69505523
  1 142 36     145.04338467
  1 142 37     144.19993566
  1 141 37     143.03315085
  1 140 37     141.70321973
  1 139 37     140.41630773
  1 139 38     139.46895846
  1 138 38     138.75374573
  1 138 39     137.77390036
  1 137 39     136.93356134
  1 137 40     135.95326986
  1 136 40     135.18303057
  1 136 41     134.53193619
  1 136 42     133.33407036
  1 136 43     132.16742441
  1 136 44     130.98493088
  1 136 45     129.79725759
  1 136 46     128.00000000
  1 136 47     128.00000000
  1 135 47     128.00000000
  1 135 48     128.00000000
  1 134 48     128.00000000
  1 134 49     127.58622092
  1 133 49     126.57821572
  1 132 49     125.48793363
  1 132 50     124.91145490
  1 131 50     124.12358947
  1 131 51     123.36063529
  1 130 51     122.65241241
  1 130 52     121.84930992
  1 129 52     121.22888904
  1 129 53     120.31433340
  1 128 53     119.62973769
  1 128 54     118.88107364
  1 127 54     118.00000000
  1 127 55     117.09915638
  1 126 55     116.04076299
  1 126 56     115.16365363
  1 126 57     113.00000000
  1 126 58     112.50690851
  1 126 59     111.95305008
  1 127 59     111.45465830
  1 127 60     110.52102471
  1 127 61     109.83813055
  1 126 61     109.32569502
  1 126 62     108.00000000
  1 126 63     107.05756680
  1 126 64     106.11209347
  1 125 64     105.30099931
  1 125 65     103.00000000
  1 125 66     103.00000000
  1 125 67     103.00000000
  1 124 67     101.47884171
  1 124 68      97.79065810
  1 123 68      97.24360257
  1 123 69      96.57960596
  1 124 69      96.17955859
  1 124 70      95.78610740
  1 124 71      95.16731502
  1 124 72      94.55295452
  1 124 73      93.91702833
  1 124 74      93.46491736
  1 125 74      93.00000000
  1 125 75      93.00000000
  1 125 76      93.00000000
  1 125 77      93.00000000
  1 125 78      93.00000000
  1 126 78      93.00000000
  1 126 79      92.12048299
  1 126 80      90.43894396
  1 126 81      88.00000000
  1 126 82      88.00000000
  1 127 82      88.00000000
  1 127 83      88.00000000
  1 127 84      88.00000000
  1 127 85      87.19121568
  1 127 86      86.08213058
  1 128 86      85.21121016
  1 128 87      82.50485728
  1 128 88      81.49739604
  1 128 89      80.51285739
  1 129 89      79.97479631
  1 129 90      79.44044989
  1 129 91      77.61359348
  1 129 92      76.77095057
  1 130 92      76.29447254
  1 130 93      75.77495069
  1 130 94      75.14710792
  1 131 94      74.75779639
  1 131 95      74.11935966
  1 131 96      72.50420304
  1 131 97      71.51320173
  1 131 98      70.51436056
  1 131 99      69.76525692
  1 132 99      69.25031689
  1 132 100      67.18525301
  1 132 101      65.53823186
  1 132 102      63.00000000
  1 132 103      63.00000000
  1 132 104      63.00000000
  1 131 104      63.00000000
  1 131 105      63.00000000
  1 132 105      63.00000000
  1 132 106      63.00000000
  1 132 107      62.31485208
  1 132 108      60.93089198
  1 132 109      59.48002282
  1 132 110      58.00000000
  1 133 110      58.00000000
  1 133 111      57.58818217
  1 133 112      56.76183213
  1 133 113      56.10887611
  1 132 113      55.59226067
  1 132 114      54.90114205
  1 131 114      54.39392987
  1 131 115      53.88765990
  1 131 116      53.00000000
  1 132 116      53.00000000
  1 132 117      53.63160020
  1 132 118      54.30541370
  1 131 118      54.95194449
  1 131 119      56.16751341
  1 131 120      56.77174688
  1 131 121      51.73850655
  1 131 122      48.00000000
  1 131 123      48.00000000
  1 130 123      48.00000000
  1 130 124      48.00000000
  1 130 125      48.00000000
  1 130 126      48.00000000
  1 130 127      47.41350714
  1 129 127      46.79370463
  1 129 128      46.13203489
  1 129 129      44.86474003
  1 129 130      43.00000000
  1 129 131      43.00000000
  1 129 132      43.00000000
  1 129 133      42.00774031
  1 129 134      40.69591156
  1 128 134      38.00000000
  1 128 135      38.00000000
  1 127 135      38.00000000
  1 127 136      38.00000000
  1 127 137      37.19271285
  1 127 138      35.56400480
  1 127 139      34.41733518
  1 126 139      33.00000000
  1 126 140      33.00000000
  1 126 141      33.00000000
  1 125 141      33.00000000
  1 125 142      33.00000000
  1 125 143      33.00000000
  1 125 144      32.15897294
  1 125 145      30.48829732
  1 125 146      28.00000000
  1 125 147      28.00000000
  1 125 148      28.00000000
  1 125 149      28.00000000
  1 124 149      28.00000000
  1 124 150      28.00000000
  1 124 151      28.00000000
  1 124 152      28.00000000
  1 124 153      28.00000000
  1 124 154      28.00000000
  1 123 154      28.00000000
  1 123 155      28.00000000
  1 123 156      27.59871497
  1 123 157      26.80096203
  1 123 158      26.07206753
  1 122 158      25.67559963
  1 122 159      25.21095340
  1 122 160      24.39270106
  1 122 161      23.55411135
  1 122 162      23.13083036
  1 121 162      22.70988809
  1 121 163      21.87394183
  1 121 164      21.13787474
  1 120 164      20.71583687
  1 120 165      20.14516882
  1 120 166      19.32959857
  1 119 166      18.90857767
  1 119 167      17.84370379
  1 119 168      17.53799785
  1 119 169      17.23773971
  1 119 170      17.03990018
  1 118 170      16.88466286
  1 118 171      16.61985878
  1 118 172      16.30650345
  1 118 173      16.13696667
  1 117 173      15.98373876
  1 117 174      15.69704169
  1 117 175      15.39862405
  1 117 176      15.10905606
  1 116 176      14.94513370
  1 116 177      14.76204795
  1 116 178      14.45507164
  1 116 179      14.15527871
  1 116 180      13.85933489
  1 116 181      13.55801703
  1 116 182      13.29485289
  1 117 182      13.13958494
  1 117 183      12.93750029
  1 117 184      12.63324424
  1 117 185      12.33614943
  1 117 186      12.04234996
  1 117 187      11.75048004
  1 117 188      11.45606351
  1 117 189      11.16100370
  1 117 190      10.86803101
  1 117 191      10.57527232
  1 117 192      10.27605226
  1 117 193       9.97598148
  1 117 194       9.68121745
  1 117 195       9.38862648
  1 117 196       9.09514644
  1 117 197       8.78721790
  1 117 198       8.49110272
  1 116 198       8.33786284
  1 116 199       8.17531821
  1 116 200       7.92199771
  1 117 200       7.76906105
  1 117 201       7.56377469
  1 117 202       7.28917488
  1 118 202       7.08623371
  1 118 203       6.85802860
  1 119 203       6.66536115
  1 119 204       6.45939019
  1 119 205       6.15803695
  1 119 206       5.90462582
  1 118 206       5.73435276
  1 118 207       5.50010630
  1 117 207       5.27652591
  1 117 208       5.08501606
  1 116 208       4.85780249
  1 116 209       4.62028583
  1 116 210       4.32426936
  1 116 211       4.11657254
  1 117 211       3.96152528
  1 117 212       3.70133697
  1 117 213       3.45027152
  1 118 213       3.26609697
  1 118 214       3.00836006
  1 119 214       2.82156296
  1 119 215       2.61564597
  1 119 216       2.28695072
  1 119 217       1.97135357
  1 119 218       1.70345666
  1 118 218       1.52964165
  1 118 219       1.28352861
  1 118 220       1.06131383
  1 117 220       0.88329835
END period  1

