BEGIN options
END options

BEGIN dimensions
  MAXBOUND  106
END dimensions

BEGIN period  1
  1 93 117      -0.00648782
  1 109 119      -0.04646436
  1 124 128      -0.04431761
  1 101 98      -0.00551433
  1 103 95      -0.00419521
  1 75 78      -0.00813356
  1 120 92      -0.00371639
  1 64 105      -0.00910705
  1 64 105      -0.01102549
  1 88 19      -0.01124112
  1 118 98      -0.03346969
  1 116 98      -0.00473110
  1 80 108      -0.02396626
  1 80 109      -0.01406012
  1 73 124      -0.00750888
  1 72 125      -0.00246068
  1 79 131      -0.00616121
  1 73 129      -0.01513508
  1 79 122      -0.01472603
  1 79 126      -0.00749619
  1 90 82      -0.01078767
  1 56 111      -0.00771182
  1 97 110      -0.00495941
  1 74 54      -0.00334855
  1 107 117      -0.01416159
  1 108 112      -0.01440576
  1 108 112      -0.01087646
  1 106 115      -0.00876142
  1 105 106      -0.00896436
  1 52 81      -0.00636733
  1 110 66      -0.00740741
  1 81 26      -0.00991882
  1 84 27      -0.01359082
  1 103 124      -0.01250317
  1 106 124      -0.01511289
  1 41 131  -1.26839168E-04
  1 81 71      -0.02446728
  1 77 43      -0.01113648
  1 75 45      -0.06351788
  1 75 45      -0.02671550
  1 102 108      -0.00670028
  1 104 104      -0.01872780
  1 103 103      -0.01459919
  1 101 101      -0.01820459
  1 99 101      -0.01423770
  1 78 38      -0.00523212
  1 112 106  -5.64434297E-04
  1 76 88      -0.01619736
  1 74 98      -0.00989663
  1 70 96      -0.00919584
  1 81 99      -0.00489916
  1 59 85      -0.00315830
  1 76 69      -0.02978184
  1 72 71      -0.00895167
  1 76 64      -0.00722666
  1 64 100      -0.01864219
  1 94 90      -0.00491819
  1 97 77      -0.00528285
  1 56 92      -0.00726788
  1 57 90      -0.00193113
  1 51 90      -0.01621639
  1 43 98      -0.00228311
  1 83 120      -0.00547945
  1 83 120      -0.00537481
  1 87 109      -0.01092402
  1 35 103  -3.51978691E-04
  1 98 127      -0.01009323
  1 99 121      -0.03848935
  1 71 81      -0.02497146
  1 71 83      -0.00793379
  1 74 89      -0.01805873
  1 70 80      -0.00200406
  1 82 53      -0.09195840
  1 77 51      -0.01979959
  1 77 51      -0.03000698
  1 79 53      -0.00282217
  1 82 52      -0.01492580
  1 82 52      -0.02101408
  1 82 52      -0.04545599
  1 82 57      -0.00375444
  1 49 115      -0.00440132
  1 48 116      -0.01429795
  1 45 120      -0.01399670
  1 46 120      -0.00509576
  1 51 114      -0.02236175
  1 133 71      -0.00947806
  1 47 123      -0.01402841
  1 47 123      -0.00246385
  1 48 120      -0.01660008
  1 51 123      -0.00468037
  1 47 125      -0.01491946
  1 67 126      -0.00316147
  1 65 127      -0.00707763
  1 67 127      -0.00874873
  1 105 65      -0.00191527
  1 106 57      -0.01204021
  1 93 111      -0.00235921
  1 92 59      -0.01718037
  1 95 60      -0.02500951
  1 57 122      -0.00742643
  1 55 129      -0.00437278
  1 85 82      -0.01532851
  1 101 72      -0.00696030
  1 66 119      -0.00655441
  1 94 101      -0.00965880
  1 73 72      -0.00361809
END period  1

