BEGIN options
END options

BEGIN dimensions
  MAXBOUND  106
END dimensions

BEGIN period  1
  1 154 195      -0.00648782
  1 182 198      -0.04646436
  1 206 214      -0.04431761
  1 168 162      -0.00551433
  1 171 158      -0.00419521
  1 125 130      -0.00813356
  1 199 152      -0.00371639
  1 107 174      -0.00910705
  1 107 175      -0.01102549
  1 146 32      -0.01124112
  1 196 163      -0.03346969
  1 194 164      -0.00473110
  1 134 180      -0.02396626
  1 133 181      -0.01406012
  1 121 206      -0.00750888
  1 120 208      -0.00246068
  1 132 217      -0.00616121
  1 122 214      -0.01513508
  1 131 203      -0.01472603
  1 132 209      -0.00749619
  1 150 136      -0.01078767
  1 94 185      -0.00771182
  1 162 183      -0.00495941
  1 124 90      -0.00334855
  1 178 194      -0.01416159
  1 179 187      -0.01440576
  1 179 187      -0.01087646
  1 176 191      -0.00876142
  1 174 177      -0.00896436
  1 86 135      -0.00636733
  1 183 109      -0.00740741
  1 134 43      -0.00991882
  1 140 44      -0.01359082
  1 172 206      -0.01250317
  1 176 206      -0.01511289
  1 69 219  -1.26839168E-04
  1 135 119      -0.02446728
  1 129 71      -0.01113648
  1 124 75      -0.06351788
  1 124 75      -0.02671550
  1 170 179      -0.00670028
  1 173 173      -0.01872780
  1 171 171      -0.01459919
  1 168 168      -0.01820459
  1 164 169      -0.01423770
  1 129 63      -0.00523212
  1 186 177  -5.64434297E-04
  1 126 146      -0.01619736
  1 123 163      -0.00989663
  1 116 160      -0.00919584
  1 134 164      -0.00489916
  1 98 142      -0.00315830
  1 127 114      -0.02978184
  1 120 119      -0.00895167
  1 126 106      -0.00722666
  1 107 167      -0.01864219
  1 156 149      -0.00491819
  1 162 128      -0.00528285
  1 94 154      -0.00726788
  1 95 150      -0.00193113
  1 85 150      -0.01621639
  1 72 163      -0.00228311
  1 138 199      -0.00547945
  1 138 199      -0.00537481
  1 145 181      -0.01092402
  1 58 171  -3.51978691E-04
  1 164 211      -0.01009323
  1 165 202      -0.03848935
  1 118 134      -0.02497146
  1 118 139      -0.00793379
  1 122 148      -0.01805873
  1 116 133      -0.00200406
  1 137 87      -0.09195840
  1 128 84      -0.01979959
  1 128 84      -0.03000698
  1 131 88      -0.00282217
  1 136 86      -0.01492580
  1 136 86      -0.02101408
  1 136 86      -0.04545599
  1 136 95      -0.00375444
  1 82 191      -0.00440132
  1 80 193      -0.01429795
  1 75 200      -0.01399670
  1 76 200      -0.00509576
  1 85 189      -0.02236175
  1 222 118      -0.00947806
  1 78 205      -0.01402841
  1 78 205      -0.00246385
  1 79 199      -0.01660008
  1 84 205      -0.00468037
  1 78 208      -0.01491946
  1 111 210      -0.00316147
  1 108 212      -0.00707763
  1 111 212      -0.00874873
  1 174 108      -0.00191527
  1 176 95      -0.01204021
  1 155 184      -0.00235921
  1 152 98      -0.01718037
  1 158 99      -0.02500951
  1 95 203      -0.00742643
  1 92 215      -0.00437278
  1 142 136      -0.01532851
  1 168 119      -0.00696030
  1 109 198      -0.00655441
  1 156 169      -0.00965880
  1 121 120      -0.00361809
END period  1

