BEGIN options
END options

BEGIN dimensions
  MAXBOUND  406
END dimensions

BEGIN period  1
  1 138 199      -0.00913759
  1 111 209      -0.00433229
  1 134 180      -0.00120240
  1 133 181      -0.01802905
  1 108 166  -7.36681887E-04
  1 107 175      -0.01063921
  1 107 174      -0.01852448
  1 129 177      -0.01352007
  1 144 179      -0.00790589
  1 95 203      -0.00495412
  1 128 123      -0.00383454
  1 131 123      -0.01462427
  1 142 136      -0.02368861
  1 122 149      -0.02338258
  1 123 144  -8.87874176E-04
  1 125 130      -0.00760195
  1 129 88      -0.04297939
  1 136 95      -0.00362649
  1 129 63      -0.00353678
  1 130 63  -7.87037037E-05
  1 86 135      -0.00887373
  1 124 90      -0.00407300
  1 121 206      -0.00839365
  1 94 154      -0.01678393
  1 137 104  -9.69748858E-04
  1 179 127      -0.00856164
  1 69 176  -4.81988838E-04
  1 142 125  -5.40969051E-04
  1 128 101  -9.51293760E-05
  1 124 93  -1.14155251E-04
  1 144 96      -0.00129316
  1 196 162      -0.00879287
  1 165 202      -0.00235661
  1 154 195      -0.00948354
  1 165 202      -0.00945152
  1 175 208      -0.01234592
  1 165 202      -0.01003656
  1 165 202      -0.00911726
  1 165 202      -0.00450289
  1 172 154      -0.00279408
  1 145 180      -0.00665690
  1 155 185      -0.00289422
  1 157 148      -0.00620316
  1 150 136  -2.17846271E-05
  1 162 128      -0.01136771
  1 120 208      -0.00407788
  1 104 217      -0.00881837
  1 130 204      -0.01169032
  1 120 206      -0.00828057
  1 122 214      -0.01047974
  1 108 212      -0.01826113
  1 132 217      -0.00747121
  1 195 162      -0.00560458
  1 194 164      -0.00367526
  1 195 163      -0.01485769
  1 178 209  -8.56164384E-04
  1 176 204      -0.01079354
  1 165 201      -0.00625856
  1 173 195      -0.00134434
  1 175 208      -0.05300685
  1 153 154      -0.00407132
  1 174 176      -0.00789346
  1 164 169      -0.00729154
  1 168 168      -0.00733206
  1 171 171      -0.00828494
  1 173 173      -0.00909358
  1 162 183      -0.00438981
  1 179 187      -0.00368760
  1 156 168      -0.01084928
  1 169 154  -9.30365297E-04
  1 170 179      -0.01212129
  1 172 157      -0.00822089
  1 215 128      -0.02064181
  1 199 152      -0.00379665
  1 222 118      -0.00790512
  1 209 141  -6.31151700E-04
  1 144 135      -0.01117596
  1 175 137  -7.82090309E-04
  1 168 119      -0.00677010
  1 172 103      -0.01167057
  1 152 98      -0.01803574
  1 183 110      -0.01236682
  1 174 108      -0.00100285
  1 158 100      -0.01822045
  1 156 102      -0.00106215
  1 146 33      -0.00924978
  1 118 217  -2.45846017E-04
  1 138 200      -0.00779344
  1 110 198      -0.00245798
  1 119 177  -6.34195840E-04
  1 140 186  -9.51293760E-06
  1 113 167  -1.36352106E-04
  1 134 164      -0.01218246
  1 116 160      -0.00358688
  1 123 163  -3.67833587E-06
  1 112 157      -0.00565088
  1 135 175      -0.00133942
  1 88 198      -0.00422130
  1 95 208      -0.00477559
  1 80 193      -0.00433143
  1 95 203      -0.00495294
  1 88 198      -0.01609821
  1 84 205      -0.00599505
  1 80 202      -0.00937288
  1 76 200      -0.01470605
  1 98 164      -0.01688559
  1 94 185      -0.00794930
  1 57 172      -0.00688118
  1 93 165  -3.80517504E-05
  1 62 183  -1.42694064E-04
  1 85 189      -0.00452353
  1 69 166  -2.16197362E-04
  1 85 151      -0.00150520
  1 116 133      -0.00905410
  1 126 146      -0.00901164
  1 131 149  -1.74530695E-04
  1 140 132      -0.00116920
  1 118 134      -0.01088401
  1 123 149  -4.27416286E-04
  1 120 119      -0.01101376
  1 118 139      -0.01008333
  1 132 84      -0.01522726
  1 129 86      -0.02730654
  1 129 86      -0.00204871
  1 127 114  -5.06659056E-04
  1 141 97  -3.80517504E-04
  1 126 106      -0.00893690
  1 137 87      -0.11600828
  1 125 60  -1.39681634E-04
  1 129 69      -0.06838499
  1 129 69      -0.02161574
  1 126 77      -0.01389374
  1 142 57  -1.61244292E-04
  1 95 150      -0.00894882
  1 98 142      -0.00320329
  1 82 143  -3.32952816E-04
  1 85 150      -0.00870687
  1 196 166  -3.54832572E-04
  1 179 187      -0.01708222
  1 158 100      -0.01972707
  1 100 206      -0.00385813
  1 118 217  -2.05701421E-04
  1 107 167      -0.00271100
  1 112 158      -0.00565088
  1 78 208      -0.00853244
  1 80 193      -0.01112833
  1 82 192      -0.00529097
  1 81 203      -0.00443610
  1 82 191      -0.00511162
  1 86 165      -0.00256355
  1 85 189      -0.00641521
  1 77 165  -7.59069001E-04
  1 131 84      -0.02256938
  1 52 220      -0.00972501
  1 186 204  -2.21968544E-04
  1 164 155  -3.98592085E-04
  1 169 162  -3.80517504E-04
  1 169 163  -2.37823440E-05
  1 128 128  -2.04845256E-04
  1 119 202      -0.00158549
  1 150 136  -2.16894977E-04
  1 78 178  -1.90258752E-04
  1 95 189      -0.00253678
  1 104 192  -6.65905632E-04
  1 145 133  -8.68848300E-05
  1 181 209  -2.02942669E-04
  1 174 193  -3.55149670E-04
  1 137 61  -4.66133942E-04
  1 139 41  -1.85660832E-04
  1 136 71  -5.07356672E-04
  1 128 81  -1.80745814E-04
  1 129 59  -2.85388128E-04
  1 131 65  -3.10755961E-04
  1 126 66  -6.34195840E-04
  1 132 65  -5.07356672E-04
  1 128 60  -1.90258752E-04
  1 134 64  -4.42351598E-04
  1 132 63  -1.98503298E-04
  1 130 66  -5.67605277E-04
  1 130 67  -1.10984272E-04
  1 130 61  -2.12455606E-04
  1 188 177  -1.38381532E-04
  1 185 195  -1.26839168E-04
  1 185 186  -2.91254439E-04
  1 113 163  -1.26839168E-04
  1 95 169      -0.00190259
  1 97 176  -7.61035008E-04
  1 100 176  -4.75646880E-05
  1 98 180  -6.34195840E-04
  1 93 163  -1.01471334E-04
  1 95 166  -6.34195840E-04
  1 98 175  -9.51293760E-05
  1 100 179  -1.77574835E-04
  1 90 164  -6.18340944E-04
  1 81 141  -4.75646880E-04
  1 138 90  -3.80517504E-04
  1 141 88  -3.80517504E-04
  1 142 102  -3.80517504E-04
  1 136 95  -7.13470320E-05
  1 140 96  -3.80517504E-04
  1 131 93  -3.80517504E-04
  1 136 99  -3.80517504E-04
  1 137 99  -4.92770167E-04
  1 191 180      -0.00846651
  1 79 197  -1.90258752E-04
  1 79 196  -2.85388128E-04
  1 76 198  -2.66362253E-04
  1 77 191  -1.14155251E-04
  1 82 187  -1.90258752E-04
  1 85 192  -7.22983257E-04
  1 81 201  -1.26839168E-04
  1 83 199  -2.53678336E-05
  1 80 198  -6.34195840E-04
  1 60 183  -1.90258752E-04
  1 59 183  -2.37823440E-04
  1 147 99  -3.55149670E-04
  1 92 205  -1.20497210E-04
  1 93 215  -1.52207002E-04
  1 92 203  -5.83460173E-04
  1 92 206      -0.00126839
  1 92 207      -0.00126839
  1 91 207  -2.53678336E-04
  1 100 198  -9.51293760E-04
  1 100 197  -3.80517504E-04
  1 104 198  -4.56621005E-04
  1 99 201  -5.77118214E-04
  1 100 202  -3.17097920E-04
  1 100 195  -5.39066464E-04
  1 143 123  -2.02942669E-04
  1 113 198  -5.07356672E-04
  1 114 195  -1.52207002E-04
  1 113 192  -5.07356672E-04
  1 113 189  -6.34195840E-04
  1 111 188  -2.66362253E-04
  1 114 187  -1.26839168E-04
  1 112 188  -1.01471334E-04
  1 113 200  -1.90258752E-04
  1 115 190  -1.01471334E-04
  1 114 197  -7.48351091E-05
  1 114 190      -0.00122400
  1 105 198  -8.62506342E-04
  1 203 162  -5.70776256E-04
  1 123 121  -1.58548960E-04
  1 52 172  -1.90258752E-04
  1 133 86  -2.06113648E-05
  1 108 184  -5.07356672E-04
  1 105 183  -1.58548960E-04
  1 143 79      -0.00153355
  1 148 123  -3.80517504E-04
  1 148 90  -4.28082192E-04
  1 105 180  -1.71232877E-04
  1 180 204      -0.00232024
  1 133 52      -0.00108457
  1 138 75  -6.34830036E-04
  1 132 67  -2.85388128E-04
  1 129 67  -1.18911720E-04
  1 129 68  -4.71841705E-04
  1 115 167  -2.85388128E-04
  1 120 176  -8.16812532E-04
  1 159 138      -0.00107211
  1 121 152  -2.85388128E-04
  1 142 106      -0.00761035
  1 137 101  -1.90258752E-04
  1 60 182  -2.28310502E-04
  1 144 121  -9.51293760E-04
  1 163 135  -6.67808219E-04
  1 112 193  -5.07356672E-04
  1 113 195  -1.90258752E-04
  1 113 194  -1.21765601E-04
  1 105 195  -7.29325216E-04
  1 46 186      -0.00194857
  1 141 91  -5.70776256E-04
  1 151 124  -8.87874176E-05
  1 85 147  -5.89548453E-04
  1 82 139  -5.70776256E-04
  1 140 104  -6.72247590E-04
  1 75 200      -0.00751522
  1 78 191  -5.39066464E-04
  1 74 179  -5.70776256E-04
  1 78 205  -1.26839168E-04
  1 83 206  -4.43937088E-05
  1 85 206  -6.34195840E-04
  1 81 199  -2.70167428E-04
  1 143 199  -3.64662608E-04
  1 63 179  -4.69304921E-05
  1 59 175  -1.42694064E-04
  1 61 170  -2.98706240E-04
  1 66 168  -6.34195840E-05
  1 154 182      -0.00232024
  1 144 112      -0.00133181
  1 144 115      -0.00123668
  1 157 99  -1.64890918E-04
  1 148 116      -0.00237823
  1 146 95  -1.61085743E-04
  1 152 104  -3.08282598E-04
  1 93 211  -3.75443937E-04
  1 92 206  -6.34195840E-04
  1 93 206  -3.17097920E-04
  1 143 122      -0.00132610
  1 147 116  -3.74175545E-04
  1 108 194  -7.92744800E-04
  1 111 195  -9.51293760E-05
  1 107 194  -4.85159817E-04
  1 110 199  -7.86402841E-05
  1 112 193  -3.17097920E-04
  1 111 195      -0.00221969
  1 112 201  -4.75646880E-05
  1 111 195      -0.00143962
  1 131 88      -0.00406028
  1 110 200      -0.00294803
  1 158 197  -2.85388128E-04
  1 182 198      -0.01716086
  1 181 211  -6.97615424E-05
  1 171 207  -8.87874176E-04
  1 127 128  -9.86174531E-05
  1 116 175  -1.90258752E-04
  1 117 184      -0.00106317
  1 110 188  -2.09284627E-04
  1 114 176  -1.57978184E-04
  1 147 38      -0.00532725
  1 147 33      -0.00102645
  1 207 138  -3.91742770E-04
  1 117 201      -0.00190259
  1 148 134  -6.34195840E-04
  1 143 142  -5.70776256E-04
  1 94 175      -0.00155327
  1 101 192  -6.21511923E-04
  1 95 181  -2.02942669E-04
  1 176 191      -0.02072073
  1 178 194      -0.00283584
  1 180 209  -1.52207002E-04
  1 177 213  -6.59563673E-04
  1 175 200  -9.51293760E-05
  1 180 199  -1.26839168E-04
  1 172 191  -3.17097920E-04
  1 171 196  -6.49670218E-04
  1 82 137      -0.00383153
  1 145 41  -4.94672755E-04
  1 136 63  -2.91730086E-04
  1 132 55  -9.10705226E-04
  1 176 205  -8.37138508E-04
  1 171 209  -2.21968544E-04
  1 172 209  -3.17097920E-04
  1 175 207  -1.26839168E-04
  1 208 152      -0.00351195
  1 185 194  -2.28310502E-04
  1 184 195  -1.01471334E-04
  1 184 183  -5.95509893E-05
  1 192 198  -7.51490360E-04
  1 185 185  -6.78652968E-04
  1 191 184  -6.34195840E-04
  1 123 170  -2.56532217E-04
  1 120 180  -3.71955860E-04
  1 114 163  -3.80517504E-04
  1 108 166  -1.47989599E-04
  1 131 149  -6.03754439E-05
  1 127 116  -3.17097920E-04
  1 129 102  -5.07356672E-05
  1 99 176  -6.34195840E-04
  1 99 169  -3.17097920E-04
  1 95 174  -3.17097920E-04
  1 91 164  -3.75443937E-04
  1 97 178      -0.00179160
  1 100 170      -0.00114472
  1 93 165      -0.00126839
  1 100 179      -0.00126839
  1 98 171  -3.17097920E-04
  1 91 164  -4.75646880E-04
  1 153 155  -7.92744800E-06
  1 199 196      -0.00285388
  1 115 212      -0.00190259
  1 111 214  -8.33967529E-04
  1 111 214  -3.99543379E-04
  1 111 214  -9.51293760E-04
  1 111 209  -3.85020294E-04
  1 136 88  -1.71232877E-04
  1 138 87      -0.00133181
  1 135 92  -2.37823440E-04
  1 141 100  -2.15626585E-04
  1 135 102  -6.75418569E-05
  1 142 106      -0.00228311
  1 144 92  -3.80517504E-04
  1 144 93  -3.80517504E-04
  1 140 97  -3.80517504E-04
  1 109 199      -0.00142694
  1 107 194  -3.17097920E-04
  1 105 192  -1.90258752E-04
  1 112 202  -5.07356672E-04
  1 115 196  -9.51293760E-05
  1 115 198  -8.56164384E-04
  1 112 190  -6.34195840E-05
  1 178 140  -7.51204972E-05
  1 125 118  -6.34195840E-05
  1 183 110      -0.01119482
  1 52 221      -0.01019980
  1 177 139  -2.99784373E-04
  1 135 87  -2.18797565E-04
  1 58 171  -1.54268138E-04
  1 191 174      -0.01106298
  1 95 200  -9.51293760E-04
  1 95 199  -4.75646880E-04
  1 146 58  -5.70776256E-04
  1 199 209  -2.94457128E-04
  1 114 194  -3.99543379E-04
  1 83 146  -5.57141045E-05
  1 187 210  -3.55149670E-04
END period  1

