BEGIN options
  SAVE_FLOWS
END options

BEGIN dimensions
  MAXBOUND  169
END dimensions

BEGIN period  1
  1 114 2     168.26725278   4.4967630118e-03  166.26725278
  1 114 3     163.13890908   4.4967630118e-03  161.13890908
  1 113 7     150.74476716   4.4967630118e-03  148.74476716
  1 113 8     149.11995384   4.4967630118e-03  147.11995384
  1 113 9     147.60751965   4.4967630118e-03  145.60751965
  1 112 9     146.07037853   4.4967630118e-03  144.07037853
  1 111 9     144.38528449   4.4967630118e-03  142.38528449
  1 110 10     142.21459227   4.4967630118e-03  140.21459227
  1 110 11     141.05811729   4.4967630118e-03  139.05811729
  1 109 12     138.68417067   4.4967630118e-03  136.68417067
  1 108 12     137.82158160   4.4967630118e-03  135.82158160
  1 108 13     136.32956030   4.4967630118e-03  134.32956030
  1 108 14     134.68484227   4.4967630118e-03  132.68484227
  1 108 15     133.01912754   4.4967630118e-03  131.01912754
  1 108 16     131.38843742   4.4967630118e-03  129.38843742
  1 107 16     130.44557976   4.4967630118e-03  128.44557976
  1 107 17     129.47000000   4.4967630118e-03  127.47000000
  1 106 17     126.95674846   4.4967630118e-03  124.95674846
  1 105 17     125.05000000   4.4967630118e-03  123.05000000
  1 105 18     124.41967494   4.4967630118e-03  122.41967494
  1 104 18     123.54438654   4.4967630118e-03  121.54438654
  1 104 19     122.71392399   4.4967630118e-03  120.71392399
  1 103 19     121.96832476   4.4967630118e-03  119.96832476
  1 103 20     121.06965373   4.4967630118e-03  119.06965373
  1 102 20     120.26218686   4.4967630118e-03  118.26218686
  1 102 21     119.44000000   4.4967630118e-03  117.44000000
  1 101 22     114.60000000   4.4967630118e-03  112.60000000
  1 101 23     113.27632535   4.4967630118e-03  111.27632535
  1 101 24     111.95628269   4.4967630118e-03  109.95628269
  1 101 25     110.61755312   4.4967630118e-03  108.61755312
  1 101 26     109.20000000   4.4967630118e-03  107.20000000
  1 101 27     107.68617677   4.4967630118e-03  105.68617677
  1 100 27     106.38322468   4.4967630118e-03  104.38322468
  1 100 28     104.14000000   4.4967630118e-03  102.14000000
  1 100 29     104.14000000   4.4967630118e-03  102.14000000
  1 99 29      99.00000000   4.4967630118e-03   97.00000000
  1 99 30      98.02487359   4.4967630118e-03   96.02487359
  1 99 31      96.82983178   4.4967630118e-03   94.82983178
  1 99 32      95.89345158   4.4967630118e-03   93.89345158
  1 100 32      95.42978543   4.4967630118e-03   93.42978543
  1 100 33      94.95343815   4.4967630118e-03   92.95343815
  1 100 34      94.00000000   4.4967630118e-03   92.00000000
  1 100 35      94.00000000   4.4967630118e-03   92.00000000
  1 100 36      94.00000000   4.4967630118e-03   92.00000000
  1 101 36      94.00000000   4.4967630118e-03   92.00000000
  1 101 37      94.00000000   4.4967630118e-03   92.00000000
  1 101 38      89.60000000   4.4967630118e-03   87.60000000
  1 101 39      89.30000000   4.4967630118e-03   87.30000000
  1 102 39      89.43369001   4.4967630118e-03   87.43369001
  1 102 40      89.60000000   4.4967630118e-03   87.60000000
  1 102 41      86.89287680   4.4967630118e-03   84.89287680
  1 102 42      84.11000000   4.4967630118e-03   82.11000000
  1 102 43      81.96918452   4.4967630118e-03   79.96918452
  1 103 43      80.69190651   4.4967630118e-03   78.69190651
  1 103 44      79.22000000   4.4967630118e-03   77.22000000
  1 103 45      79.18000000   4.4967630118e-03   77.18000000
  1 103 46      78.03649666   4.4967630118e-03   76.03649666
  1 104 46      76.97174705   4.4967630118e-03   74.97174705
  1 104 47      75.23557892   4.4967630118e-03   73.23557892
  1 104 48      74.03000000   4.4967630118e-03   72.03000000
  1 105 48      70.48000000   4.4967630118e-03   68.48000000
  1 105 49      70.00057146   4.4967630118e-03   68.00057146
  1 105 50      69.38000000   4.4967630118e-03   67.38000000
  1 105 51      66.39541558   4.4967630118e-03   64.39541558
  1 105 52      63.37000000   4.4967630118e-03   61.37000000
  1 105 53      63.86451097   4.4967630118e-03   61.86451097
  1 105 54      64.36000000   4.4967630118e-03   62.36000000
  1 105 55      64.50000000   4.4967630118e-03   62.50000000
  1 105 56      61.85579911   4.4967630118e-03   59.85579911
  1 105 57      60.00000000   4.4967630118e-03   58.00000000
  1 106 57      59.36000000   4.4967630118e-03   57.36000000
  1 106 58      59.36000000   4.4967630118e-03   57.36000000
  1 106 59      57.98744416   4.4967630118e-03   55.98744416
  1 105 59      57.02217398   4.4967630118e-03   55.02217398
  1 105 60      55.72153117   4.4967630118e-03   53.72153117
  1 105 61      54.00000000   4.4967630118e-03   52.00000000
  1 105 62      53.07668952   4.4967630118e-03   51.07668952
  1 105 63      52.16729034   4.4967630118e-03   50.16729034
  1 105 64      51.41387083   4.4967630118e-03   49.41387083
  1 104 64      50.96085029   4.4967630118e-03   48.96085029
  1 104 65      50.36175342   4.4967630118e-03   48.36175342
  1 104 66      49.44000000   4.4967630118e-03   47.44000000
  1 104 67      49.39484672   4.4967630118e-03   47.39484672
  1 104 68      49.36000000   4.4967630118e-03   47.36000000
  1 103 68      48.16485955   4.4967630118e-03   46.16485955
  1 103 69      46.41978734   4.4967630118e-03   44.41978734
  1 103 70      44.00000000   4.4967630118e-03   42.00000000
  1 103 71      44.00000000   4.4967630118e-03   42.00000000
  1 103 72      41.00000000   4.4967630118e-03   39.00000000
  1 103 73      39.16000000   4.4967630118e-03   37.16000000
  1 102 73      39.46000000   4.4967630118e-03   37.46000000
  1 102 74      39.67377121   4.4967630118e-03   37.67377121
  1 101 74      39.79953003   4.4967630118e-03   37.79953003
  1 101 75      40.00000000   4.4967630118e-03   38.00000000
  1 101 76      34.42000000   4.4967630118e-03   32.42000000
  1 101 77      34.70910515   4.4967630118e-03   32.70910515
  1 101 78      34.85830723   4.4967630118e-03   32.85830723
  1 100 78      35.00000000   4.4967630118e-03   33.00000000
  1 100 79      34.28000000   4.4967630118e-03   32.28000000
  1 100 80      32.51153438   4.4967630118e-03   30.51153438
  1 100 81      30.75477228   4.4967630118e-03   28.75477228
  1 100 82      29.00000000   4.4967630118e-03   27.00000000
  1 100 83      29.02942790   4.4967630118e-03   27.02942790
  1 100 84      29.04801170   4.4967630118e-03   27.04801170
  1 99 84      29.06281359   4.4967630118e-03   27.06281359
  1 99 85      29.08867154   4.4967630118e-03   27.08867154
  1 99 86      29.11906979   4.4967630118e-03   27.11906979
  1 99 87      29.15000000   4.4967630118e-03   27.15000000
  1 99 88      28.31709792   4.4967630118e-03   26.31709792
  1 98 88      27.59088337   4.4967630118e-03   25.59088337
  1 98 89      26.21822354   4.4967630118e-03   24.21822354
  1 98 90      24.71398407   4.4967630118e-03   22.71398407
  1 98 91      23.72904182   4.4967630118e-03   21.72904182
  1 97 91      22.95900603   4.4967630118e-03   20.95900603
  1 97 92      21.63924383   4.4967630118e-03   19.63924383
  1 97 93      20.43744293   4.4967630118e-03   18.43744293
  1 96 93      19.60179200   4.4967630118e-03   17.60179200
  1 96 94      18.44000000   4.4967630118e-03   16.44000000
  1 96 95      17.78185612   4.4967630118e-03   15.78185612
  1 96 96      17.38506511   4.4967630118e-03   15.38506511
  1 95 96      17.05378796   4.4967630118e-03   15.05378796
  1 95 97      16.46062806   4.4967630118e-03   14.46062806
  1 95 98      15.87846140   4.4967630118e-03   13.87846140
  1 94 98      15.54607788   4.4967630118e-03   13.54607788
  1 94 99      15.13967200   4.4967630118e-03   13.13967200
  1 94 100      14.47535816   4.4967630118e-03   12.47535816
  1 94 101      13.85132973   4.4967630118e-03   11.85132973
  1 93 101      13.52000000   4.4967630118e-03   11.52000000
  1 93 102      13.42809414   4.4967630118e-03   11.42809414
  1 94 102      13.12719869   4.4967630118e-03   11.12719869
  1 94 103      12.61973296   4.4967630118e-03   10.61973296
  1 93 103      12.31773882   4.4967630118e-03   10.31773882
  1 94 104      11.95174135   4.4967630118e-03    9.95174135
  1 94 105      11.33115770   4.4967630118e-03    9.33115770
  1 94 106      10.72532524   4.4967630118e-03    8.72532524
  1 94 107      10.13362555   4.4967630118e-03    8.13362555
  1 94 108       9.54134609   4.4967630118e-03    7.54134609
  1 94 109       8.94766174   4.4967630118e-03    6.94766174
  1 94 110       8.35646148   4.4967630118e-03    6.35646148
  1 94 111       7.75649593   4.4967630118e-03    5.75649593
  1 94 112       7.36740304   4.4967630118e-03    5.36740304
  1 95 112       7.07146780   4.4967630118e-03    5.07146780
  1 95 113       6.69000000   4.4967630118e-03    4.69000000
  1 94 113       6.47141565   4.4967630118e-03    4.47141565
  1 94 114       6.14400407   4.4967630118e-03    4.14400407
  1 94 115       5.68949386   4.4967630118e-03    3.68949386
  1 94 116       5.24079097   4.4967630118e-03    3.24079097
  1 94 117       4.86288589   4.4967630118e-03    2.86288589
  1 95 117       4.57897030   4.4967630118e-03    2.57897030
  1 95 118       4.24587335   4.4967630118e-03    2.24587335
  1 96 118       3.98095329   4.4967630118e-03    1.98095329
  1 96 119       3.69267509   4.4967630118e-03    1.69267509
  1 96 120       3.44817238   4.4967630118e-03    1.44817238
  1 95 120       3.17101969   4.4967630118e-03    1.17101969
  1 95 121       2.84893659   4.4967630118e-03    0.84893659
  1 94 121       2.51391514   4.4967630118e-03    0.51391514
  1 94 122       2.02828902   4.4967630118e-03    0.02828902
  1 94 123       1.58001388   4.4967630118e-03   -0.41998612
  1 94 124       1.18259003   4.4967630118e-03   -0.81740997
  1 95 124       0.92275546   4.4967630118e-03   -1.07724454
  1 95 125       0.58000000   4.4967630118e-03   -1.42000000
  1 96 125       0.53080169   4.4967630118e-03   -1.46919831
  1 96 126       0.48311403   4.4967630118e-03   -1.51688597
  1 96 127       0.39880444   4.4967630118e-03   -1.60119556
  1 95 127       0.35496981   4.4967630118e-03   -1.64503019
  1 95 128       0.30645339   4.4967630118e-03   -1.69354661
  1 95 129       0.23969267   4.4967630118e-03   -1.76030733
  1 94 129       0.18814509   4.4967630118e-03   -1.81185491
  1 93 130       0.10000000   4.4967630118e-03   -1.90000000
END period  1


